* NGSPICE file created from sram_0rw2r1w_16_128_sky130A.ext - technology: sky130A

.subckt dff clk vdd gnd D Q
X0 net3 net2 vdd vdd sky130_fd_pr__pfet_01v8 ad=0p pd=0u as=0p ps=0u w=1.35e+06u l=150000u
X1 gnd net7 a_922_96# gnd sky130_fd_pr__nfet_01v8 ad=0p pd=0u as=0p ps=0u w=420000u l=150000u
X2 vdd clk clkb vdd sky130_fd_pr__pfet_01v8 ad=0p pd=0u as=0p ps=0u w=1.35e+06u l=150000u
X3 net3 net2 gnd gnd sky130_fd_pr__nfet_01v8 ad=0p pd=0u as=0p ps=0u w=420000u l=150000u
X4 vdd net3 net4 vdd sky130_fd_pr__pfet_01v8 ad=0p pd=0u as=0p ps=0u w=1.35e+06u l=150000u
X5 gnd net3 a_474_96# gnd sky130_fd_pr__nfet_01v8 ad=0p pd=0u as=0p ps=0u w=420000u l=150000u
X6 gnd clk clkb gnd sky130_fd_pr__nfet_01v8 ad=0p pd=0u as=0p ps=0u w=420000u l=150000u
X7 a_922_96# clkb net6 gnd sky130_fd_pr__nfet_01v8 ad=0p pd=0u as=0p ps=0u w=420000u l=150000u
X8 a_474_96# clk net2 gnd sky130_fd_pr__nfet_01v8 ad=0p pd=0u as=0p ps=0u w=420000u l=150000u
X9 net4 clkb net2 vdd sky130_fd_pr__pfet_01v8 ad=0p pd=0u as=0p ps=0u w=1.35e+06u l=150000u
X10 net6 clk net3 gnd sky130_fd_pr__nfet_01v8 ad=0p pd=0u as=0p ps=0u w=420000u l=150000u
X11 net2 clkb net1 gnd sky130_fd_pr__nfet_01v8 ad=0p pd=0u as=0p ps=0u w=420000u l=150000u
X12 net7 net6 vdd vdd sky130_fd_pr__pfet_01v8 ad=0p pd=0u as=0p ps=0u w=1.35e+06u l=150000u
X13 net8 clk net6 vdd sky130_fd_pr__pfet_01v8 ad=0p pd=0u as=0p ps=0u w=1.35e+06u l=150000u
X14 net2 clk net1 vdd sky130_fd_pr__pfet_01v8 ad=0p pd=0u as=0p ps=0u w=1.35e+06u l=150000u
X15 net1 D gnd gnd sky130_fd_pr__nfet_01v8 ad=0p pd=0u as=0p ps=0u w=420000u l=150000u
X16 vdd net7 net8 vdd sky130_fd_pr__pfet_01v8 ad=0p pd=0u as=0p ps=0u w=1.35e+06u l=150000u
X17 net1 D vdd vdd sky130_fd_pr__pfet_01v8 ad=0p pd=0u as=0p ps=0u w=1.35e+06u l=150000u
X18 net6 clkb net3 vdd sky130_fd_pr__pfet_01v8 ad=0p pd=0u as=0p ps=0u w=1.35e+06u l=150000u
X19 Q net7 vdd vdd sky130_fd_pr__pfet_01v8 ad=0p pd=0u as=0p ps=0u w=1.35e+06u l=150000u
X20 net7 net6 gnd gnd sky130_fd_pr__nfet_01v8 ad=0p pd=0u as=0p ps=0u w=420000u l=150000u
X21 Q net7 gnd gnd sky130_fd_pr__nfet_01v8 ad=0p pd=0u as=0p ps=0u w=420000u l=150000u
.ends

.subckt nmos_m4_w0_420_sli_dli_da_p S S_uq0 S_uq1 gnd D G
X0 D G S_uq1 gnd sky130_fd_pr__nfet_01v8 ad=0p pd=0u as=0p ps=0u w=420000u l=150000u
X1 D G S gnd sky130_fd_pr__nfet_01v8 ad=0p pd=0u as=0p ps=0u w=420000u l=150000u
X2 S G D gnd sky130_fd_pr__nfet_01v8 ad=0p pd=0u as=0p ps=0u w=420000u l=150000u
X3 S_uq0 G D gnd sky130_fd_pr__nfet_01v8 ad=0p pd=0u as=0p ps=0u w=420000u l=150000u
.ends

.subckt pmos_m4_w1_260_sli_dli_da_p w_n59_42# S S_uq0 S_uq1 gnd D G
X0 D G S w_n59_42# sky130_fd_pr__pfet_01v8 ad=0p pd=0u as=0p ps=0u w=1.26e+06u l=150000u
X1 S G D w_n59_42# sky130_fd_pr__pfet_01v8 ad=0p pd=0u as=0p ps=0u w=1.26e+06u l=150000u
X2 S_uq0 G D w_n59_42# sky130_fd_pr__pfet_01v8 ad=0p pd=0u as=0p ps=0u w=1.26e+06u l=150000u
X3 D G S_uq1 w_n59_42# sky130_fd_pr__pfet_01v8 ad=0p pd=0u as=0p ps=0u w=1.26e+06u l=150000u
.ends

.subckt pinv_3 Z gnd vdd A
Xnmos_m4_w0_420_sli_dli_da_p_0 gnd gnd gnd gnd Z A nmos_m4_w0_420_sli_dli_da_p
Xpmos_m4_w1_260_sli_dli_da_p_0 vdd vdd vdd vdd gnd Z A pmos_m4_w1_260_sli_dli_da_p
.ends

.subckt nmos_m2_w0_420_sli_dli_da_p S S_uq0 gnd D G
X0 D G S gnd sky130_fd_pr__nfet_01v8 ad=0p pd=0u as=0p ps=0u w=420000u l=150000u
X1 S_uq0 G D gnd sky130_fd_pr__nfet_01v8 ad=0p pd=0u as=0p ps=0u w=420000u l=150000u
.ends

.subckt pmos_m2_w1_260_sli_dli_da_p w_n59_42# S S_uq0 gnd D G
X0 S_uq0 G D w_n59_42# sky130_fd_pr__pfet_01v8 ad=0p pd=0u as=0p ps=0u w=1.26e+06u l=150000u
X1 D G S w_n59_42# sky130_fd_pr__pfet_01v8 ad=0p pd=0u as=0p ps=0u w=1.26e+06u l=150000u
.ends

.subckt pinv_2 Z gnd vdd A
Xnmos_m2_w0_420_sli_dli_da_p_0 gnd gnd gnd Z A nmos_m2_w0_420_sli_dli_da_p
Xpmos_m2_w1_260_sli_dli_da_p_0 vdd vdd vdd gnd Z A pmos_m2_w1_260_sli_dli_da_p
.ends

.subckt dff_buf_0 pinv_3_0/vdd clk Q Qb gnd vdd D
Xdff_0 clk vdd gnd D dff_0/Q dff
Xpinv_3_0 Q gnd pinv_3_0/vdd Qb pinv_3
Xpinv_2_0 Qb gnd pinv_3_0/vdd dff_0/Q pinv_2
.ends

.subckt dff_buf_array vdd dout_0 dout_1 dout_bar_0 dout_bar_1 din_0 din_1
Xdff_buf_0_1 dff_buf_0_1/pinv_3_0/vdd vdd dout_0 dout_bar_0 vdd vdd din_0 dff_buf_0
Xdff_buf_0_0 dff_buf_0_1/pinv_3_0/vdd vdd dout_1 dout_bar_1 vdd vdd din_1 dff_buf_0
.ends

.subckt pmos_m1_w1_260_sli_dli w_n59_42# S gnd D G
X0 D G S w_n59_42# sky130_fd_pr__pfet_01v8 ad=0p pd=0u as=0p ps=0u w=1.26e+06u l=150000u
.ends

.subckt nmos_m1_w0_840_sli_dactive S gnd G a_90_0#
X0 a_90_0# G S gnd sky130_fd_pr__nfet_01v8 ad=0p pd=0u as=0p ps=0u w=840000u l=150000u
.ends

.subckt nmos_m1_w0_840_sactive_dli a_0_0# gnd D G
X0 D G a_0_0# gnd sky130_fd_pr__nfet_01v8 ad=0p pd=0u as=0p ps=0u w=840000u l=150000u
.ends

.subckt pnand2_0 w_n36_402# Z gnd A vdd B
Xpmos_m1_w1_260_sli_dli_0 w_n36_402# Z gnd vdd B pmos_m1_w1_260_sli_dli
Xpmos_m1_w1_260_sli_dli_1 w_n36_402# vdd gnd Z A pmos_m1_w1_260_sli_dli
Xnmos_m1_w0_840_sli_dactive_0 gnd gnd A nmos_m1_w0_840_sactive_dli_0/a_0_0# nmos_m1_w0_840_sli_dactive
Xnmos_m1_w0_840_sactive_dli_0 nmos_m1_w0_840_sactive_dli_0/a_0_0# gnd Z B nmos_m1_w0_840_sactive_dli
.ends

.subckt pmos_m11_w1_375_sli_dli_da_p S S_uq0 S_uq1 S_uq3 S_uq2 S_uq4 gnd w_n59_53#
+ D G
X0 D G S_uq3 w_n59_53# sky130_fd_pr__pfet_01v8 ad=0p pd=0u as=0p ps=0u w=1.375e+06u l=150000u
X1 D G S w_n59_53# sky130_fd_pr__pfet_01v8 ad=0p pd=0u as=0p ps=0u w=1.375e+06u l=150000u
X2 S_uq3 G D w_n59_53# sky130_fd_pr__pfet_01v8 ad=0p pd=0u as=0p ps=0u w=1.375e+06u l=150000u
X3 D G S_uq0 w_n59_53# sky130_fd_pr__pfet_01v8 ad=0p pd=0u as=0p ps=0u w=1.375e+06u l=150000u
X4 S G D w_n59_53# sky130_fd_pr__pfet_01v8 ad=0p pd=0u as=0p ps=0u w=1.375e+06u l=150000u
X5 S_uq0 G D w_n59_53# sky130_fd_pr__pfet_01v8 ad=0p pd=0u as=0p ps=0u w=1.375e+06u l=150000u
X6 D G S_uq2 w_n59_53# sky130_fd_pr__pfet_01v8 ad=0p pd=0u as=0p ps=0u w=1.375e+06u l=150000u
X7 D G S_uq1 w_n59_53# sky130_fd_pr__pfet_01v8 ad=0p pd=0u as=0p ps=0u w=1.375e+06u l=150000u
X8 S_uq2 G D w_n59_53# sky130_fd_pr__pfet_01v8 ad=0p pd=0u as=0p ps=0u w=1.375e+06u l=150000u
X9 S_uq1 G D w_n59_53# sky130_fd_pr__pfet_01v8 ad=0p pd=0u as=0p ps=0u w=1.375e+06u l=150000u
X10 D G S_uq4 w_n59_53# sky130_fd_pr__pfet_01v8 ad=0p pd=0u as=0p ps=0u w=1.375e+06u l=150000u
.ends

.subckt nmos_m11_w0_460_sli_dli_da_p S S_uq0 S_uq1 S_uq3 S_uq2 S_uq4 gnd D G
X0 S_uq1 G D gnd sky130_fd_pr__nfet_01v8 ad=0p pd=0u as=0p ps=0u w=460000u l=150000u
X1 D G S_uq4 gnd sky130_fd_pr__nfet_01v8 ad=0p pd=0u as=0p ps=0u w=460000u l=150000u
X2 D G S_uq3 gnd sky130_fd_pr__nfet_01v8 ad=0p pd=0u as=0p ps=0u w=460000u l=150000u
X3 D G S gnd sky130_fd_pr__nfet_01v8 ad=0p pd=0u as=0p ps=0u w=460000u l=150000u
X4 S_uq3 G D gnd sky130_fd_pr__nfet_01v8 ad=0p pd=0u as=0p ps=0u w=460000u l=150000u
X5 D G S_uq0 gnd sky130_fd_pr__nfet_01v8 ad=0p pd=0u as=0p ps=0u w=460000u l=150000u
X6 S G D gnd sky130_fd_pr__nfet_01v8 ad=0p pd=0u as=0p ps=0u w=460000u l=150000u
X7 S_uq0 G D gnd sky130_fd_pr__nfet_01v8 ad=0p pd=0u as=0p ps=0u w=460000u l=150000u
X8 D G S_uq2 gnd sky130_fd_pr__nfet_01v8 ad=0p pd=0u as=0p ps=0u w=460000u l=150000u
X9 D G S_uq1 gnd sky130_fd_pr__nfet_01v8 ad=0p pd=0u as=0p ps=0u w=460000u l=150000u
X10 S_uq2 G D gnd sky130_fd_pr__nfet_01v8 ad=0p pd=0u as=0p ps=0u w=460000u l=150000u
.ends

.subckt pinv_4 gnd vdd Z A
Xpmos_m11_w1_375_sli_dli_da_p_0 vdd vdd vdd vdd vdd vdd gnd vdd Z A pmos_m11_w1_375_sli_dli_da_p
Xnmos_m11_w0_460_sli_dli_da_p_0 gnd gnd gnd gnd gnd gnd gnd Z A nmos_m11_w0_460_sli_dli_da_p
.ends

.subckt pdriver_0 gnd vdd Z A
Xpinv_4_0 gnd vdd Z A pinv_4
.ends

.subckt pand2_0 vdd Z gnd A B
Xpnand2_0_0 vdd pnand2_0_0/Z gnd A vdd B pnand2_0
Xpdriver_0_0 gnd vdd Z pnand2_0_0/Z pdriver_0
.ends

.subckt pmos_m14_w1_440_sli_dli_da_p w_n59_60# S S_uq0 S_uq1 S_uq3 S_uq2 S_uq4 S_uq5
+ S_uq6 gnd D G
X0 D G S_uq5 w_n59_60# sky130_fd_pr__pfet_01v8 ad=0p pd=0u as=0p ps=0u w=1.44e+06u l=150000u
X1 D G S_uq2 w_n59_60# sky130_fd_pr__pfet_01v8 ad=0p pd=0u as=0p ps=0u w=1.44e+06u l=150000u
X2 S_uq5 G D w_n59_60# sky130_fd_pr__pfet_01v8 ad=0p pd=0u as=0p ps=0u w=1.44e+06u l=150000u
X3 D G S_uq1 w_n59_60# sky130_fd_pr__pfet_01v8 ad=0p pd=0u as=0p ps=0u w=1.44e+06u l=150000u
X4 S_uq2 G D w_n59_60# sky130_fd_pr__pfet_01v8 ad=0p pd=0u as=0p ps=0u w=1.44e+06u l=150000u
X5 S_uq0 G D w_n59_60# sky130_fd_pr__pfet_01v8 ad=0p pd=0u as=0p ps=0u w=1.44e+06u l=150000u
X6 S_uq1 G D w_n59_60# sky130_fd_pr__pfet_01v8 ad=0p pd=0u as=0p ps=0u w=1.44e+06u l=150000u
X7 D G S_uq4 w_n59_60# sky130_fd_pr__pfet_01v8 ad=0p pd=0u as=0p ps=0u w=1.44e+06u l=150000u
X8 D G S_uq3 w_n59_60# sky130_fd_pr__pfet_01v8 ad=0p pd=0u as=0p ps=0u w=1.44e+06u l=150000u
X9 D G S w_n59_60# sky130_fd_pr__pfet_01v8 ad=0p pd=0u as=0p ps=0u w=1.44e+06u l=150000u
X10 S_uq4 G D w_n59_60# sky130_fd_pr__pfet_01v8 ad=0p pd=0u as=0p ps=0u w=1.44e+06u l=150000u
X11 S_uq3 G D w_n59_60# sky130_fd_pr__pfet_01v8 ad=0p pd=0u as=0p ps=0u w=1.44e+06u l=150000u
X12 D G S_uq6 w_n59_60# sky130_fd_pr__pfet_01v8 ad=0p pd=0u as=0p ps=0u w=1.44e+06u l=150000u
X13 S G D w_n59_60# sky130_fd_pr__pfet_01v8 ad=0p pd=0u as=0p ps=0u w=1.44e+06u l=150000u
.ends

.subckt nmos_m14_w0_480_sli_dli_da_p S S_uq0 S_uq1 S_uq3 S_uq2 S_uq4 S_uq5 S_uq6 gnd
+ D G
X0 S_uq3 G D gnd sky130_fd_pr__nfet_01v8 ad=0p pd=0u as=0p ps=0u w=480000u l=150000u
X1 D G S_uq6 gnd sky130_fd_pr__nfet_01v8 ad=0p pd=0u as=0p ps=0u w=480000u l=150000u
X2 S G D gnd sky130_fd_pr__nfet_01v8 ad=0p pd=0u as=0p ps=0u w=480000u l=150000u
X3 D G S_uq5 gnd sky130_fd_pr__nfet_01v8 ad=0p pd=0u as=0p ps=0u w=480000u l=150000u
X4 D G S_uq2 gnd sky130_fd_pr__nfet_01v8 ad=0p pd=0u as=0p ps=0u w=480000u l=150000u
X5 S_uq5 G D gnd sky130_fd_pr__nfet_01v8 ad=0p pd=0u as=0p ps=0u w=480000u l=150000u
X6 D G S_uq1 gnd sky130_fd_pr__nfet_01v8 ad=0p pd=0u as=0p ps=0u w=480000u l=150000u
X7 S_uq2 G D gnd sky130_fd_pr__nfet_01v8 ad=0p pd=0u as=0p ps=0u w=480000u l=150000u
X8 S_uq1 G D gnd sky130_fd_pr__nfet_01v8 ad=0p pd=0u as=0p ps=0u w=480000u l=150000u
X9 S_uq0 G D gnd sky130_fd_pr__nfet_01v8 ad=0p pd=0u as=0p ps=0u w=480000u l=150000u
X10 D G S_uq4 gnd sky130_fd_pr__nfet_01v8 ad=0p pd=0u as=0p ps=0u w=480000u l=150000u
X11 D G S_uq3 gnd sky130_fd_pr__nfet_01v8 ad=0p pd=0u as=0p ps=0u w=480000u l=150000u
X12 D G S gnd sky130_fd_pr__nfet_01v8 ad=0p pd=0u as=0p ps=0u w=480000u l=150000u
X13 S_uq4 G D gnd sky130_fd_pr__nfet_01v8 ad=0p pd=0u as=0p ps=0u w=480000u l=150000u
.ends

.subckt pinv_9 Z vdd gnd A
Xpmos_m14_w1_440_sli_dli_da_p_0 vdd vdd vdd vdd vdd vdd vdd vdd vdd gnd Z A pmos_m14_w1_440_sli_dli_da_p
Xnmos_m14_w0_480_sli_dli_da_p_0 gnd gnd gnd gnd gnd gnd gnd gnd gnd Z A nmos_m14_w0_480_sli_dli_da_p
.ends

.subckt pinv_7 vdd Z gnd A
Xnmos_m2_w0_420_sli_dli_da_p_0 gnd gnd gnd Z A nmos_m2_w0_420_sli_dli_da_p
Xpmos_m2_w1_260_sli_dli_da_p_0 vdd vdd vdd gnd Z A pmos_m2_w1_260_sli_dli_da_p
.ends

.subckt nmos_m5_w0_420_sli_dli_da_p S S_uq0 S_uq1 gnd D G
X0 D G S_uq1 gnd sky130_fd_pr__nfet_01v8 ad=0p pd=0u as=0p ps=0u w=420000u l=150000u
X1 D G S gnd sky130_fd_pr__nfet_01v8 ad=0p pd=0u as=0p ps=0u w=420000u l=150000u
X2 S G D gnd sky130_fd_pr__nfet_01v8 ad=0p pd=0u as=0p ps=0u w=420000u l=150000u
X3 D G S_uq0 gnd sky130_fd_pr__nfet_01v8 ad=0p pd=0u as=0p ps=0u w=420000u l=150000u
X4 S_uq0 G D gnd sky130_fd_pr__nfet_01v8 ad=0p pd=0u as=0p ps=0u w=420000u l=150000u
.ends

.subckt pmos_m5_w1_260_sli_dli_da_p w_n59_42# S S_uq0 S_uq1 gnd D G
X0 D G S w_n59_42# sky130_fd_pr__pfet_01v8 ad=0p pd=0u as=0p ps=0u w=1.26e+06u l=150000u
X1 S G D w_n59_42# sky130_fd_pr__pfet_01v8 ad=0p pd=0u as=0p ps=0u w=1.26e+06u l=150000u
X2 D G S_uq0 w_n59_42# sky130_fd_pr__pfet_01v8 ad=0p pd=0u as=0p ps=0u w=1.26e+06u l=150000u
X3 S_uq0 G D w_n59_42# sky130_fd_pr__pfet_01v8 ad=0p pd=0u as=0p ps=0u w=1.26e+06u l=150000u
X4 D G S_uq1 w_n59_42# sky130_fd_pr__pfet_01v8 ad=0p pd=0u as=0p ps=0u w=1.26e+06u l=150000u
.ends

.subckt pinv_8 Z gnd vdd A
Xnmos_m5_w0_420_sli_dli_da_p_0 gnd gnd gnd gnd Z A nmos_m5_w0_420_sli_dli_da_p
Xpmos_m5_w1_260_sli_dli_da_p_0 vdd vdd vdd vdd gnd Z A pmos_m5_w1_260_sli_dli_da_p
.ends

.subckt pmos_m40_w1_480_sli_dli_da_p w_n59_64# S S_uq0 S_uq1 S_uq3 S_uq2 S_uq4 S_uq10
+ S_uq5 S_uq11 S_uq6 S_uq13 S_uq12 S_uq7 S_uq14 S_uq8 S_uq15 S_uq9 S_uq16 S_uq17 gnd
+ S_uq18 S_uq19 D G
X0 D G S_uq18 w_n59_64# sky130_fd_pr__pfet_01v8 ad=0p pd=0u as=0p ps=0u w=1.48e+06u l=150000u
X1 S_uq11 G D w_n59_64# sky130_fd_pr__pfet_01v8 ad=0p pd=0u as=0p ps=0u w=1.48e+06u l=150000u
X2 S_uq6 G D w_n59_64# sky130_fd_pr__pfet_01v8 ad=0p pd=0u as=0p ps=0u w=1.48e+06u l=150000u
X3 S_uq1 G D w_n59_64# sky130_fd_pr__pfet_01v8 ad=0p pd=0u as=0p ps=0u w=1.48e+06u l=150000u
X4 D G S_uq15 w_n59_64# sky130_fd_pr__pfet_01v8 ad=0p pd=0u as=0p ps=0u w=1.48e+06u l=150000u
X5 D G S_uq5 w_n59_64# sky130_fd_pr__pfet_01v8 ad=0p pd=0u as=0p ps=0u w=1.48e+06u l=150000u
X6 D G S w_n59_64# sky130_fd_pr__pfet_01v8 ad=0p pd=0u as=0p ps=0u w=1.48e+06u l=150000u
X7 D G S_uq2 w_n59_64# sky130_fd_pr__pfet_01v8 ad=0p pd=0u as=0p ps=0u w=1.48e+06u l=150000u
X8 S_uq18 G D w_n59_64# sky130_fd_pr__pfet_01v8 ad=0p pd=0u as=0p ps=0u w=1.48e+06u l=150000u
X9 D G S_uq14 w_n59_64# sky130_fd_pr__pfet_01v8 ad=0p pd=0u as=0p ps=0u w=1.48e+06u l=150000u
X10 D G S_uq12 w_n59_64# sky130_fd_pr__pfet_01v8 ad=0p pd=0u as=0p ps=0u w=1.48e+06u l=150000u
X11 D G S_uq9 w_n59_64# sky130_fd_pr__pfet_01v8 ad=0p pd=0u as=0p ps=0u w=1.48e+06u l=150000u
X12 D G S_uq7 w_n59_64# sky130_fd_pr__pfet_01v8 ad=0p pd=0u as=0p ps=0u w=1.48e+06u l=150000u
X13 D G S_uq4 w_n59_64# sky130_fd_pr__pfet_01v8 ad=0p pd=0u as=0p ps=0u w=1.48e+06u l=150000u
X14 S_uq15 G D w_n59_64# sky130_fd_pr__pfet_01v8 ad=0p pd=0u as=0p ps=0u w=1.48e+06u l=150000u
X15 S G D w_n59_64# sky130_fd_pr__pfet_01v8 ad=0p pd=0u as=0p ps=0u w=1.48e+06u l=150000u
X16 S_uq12 G D w_n59_64# sky130_fd_pr__pfet_01v8 ad=0p pd=0u as=0p ps=0u w=1.48e+06u l=150000u
X17 S_uq10 G D w_n59_64# sky130_fd_pr__pfet_01v8 ad=0p pd=0u as=0p ps=0u w=1.48e+06u l=150000u
X18 S_uq7 G D w_n59_64# sky130_fd_pr__pfet_01v8 ad=0p pd=0u as=0p ps=0u w=1.48e+06u l=150000u
X19 S_uq5 G D w_n59_64# sky130_fd_pr__pfet_01v8 ad=0p pd=0u as=0p ps=0u w=1.48e+06u l=150000u
X20 S_uq2 G D w_n59_64# sky130_fd_pr__pfet_01v8 ad=0p pd=0u as=0p ps=0u w=1.48e+06u l=150000u
X21 S_uq14 G D w_n59_64# sky130_fd_pr__pfet_01v8 ad=0p pd=0u as=0p ps=0u w=1.48e+06u l=150000u
X22 S_uq9 G D w_n59_64# sky130_fd_pr__pfet_01v8 ad=0p pd=0u as=0p ps=0u w=1.48e+06u l=150000u
X23 D G S_uq17 w_n59_64# sky130_fd_pr__pfet_01v8 ad=0p pd=0u as=0p ps=0u w=1.48e+06u l=150000u
X24 D G S_uq16 w_n59_64# sky130_fd_pr__pfet_01v8 ad=0p pd=0u as=0p ps=0u w=1.48e+06u l=150000u
X25 D G S_uq1 w_n59_64# sky130_fd_pr__pfet_01v8 ad=0p pd=0u as=0p ps=0u w=1.48e+06u l=150000u
X26 D G S_uq13 w_n59_64# sky130_fd_pr__pfet_01v8 ad=0p pd=0u as=0p ps=0u w=1.48e+06u l=150000u
X27 D G S_uq11 w_n59_64# sky130_fd_pr__pfet_01v8 ad=0p pd=0u as=0p ps=0u w=1.48e+06u l=150000u
X28 D G S_uq10 w_n59_64# sky130_fd_pr__pfet_01v8 ad=0p pd=0u as=0p ps=0u w=1.48e+06u l=150000u
X29 D G S_uq8 w_n59_64# sky130_fd_pr__pfet_01v8 ad=0p pd=0u as=0p ps=0u w=1.48e+06u l=150000u
X30 D G S_uq6 w_n59_64# sky130_fd_pr__pfet_01v8 ad=0p pd=0u as=0p ps=0u w=1.48e+06u l=150000u
X31 D G S_uq3 w_n59_64# sky130_fd_pr__pfet_01v8 ad=0p pd=0u as=0p ps=0u w=1.48e+06u l=150000u
X32 S_uq17 G D w_n59_64# sky130_fd_pr__pfet_01v8 ad=0p pd=0u as=0p ps=0u w=1.48e+06u l=150000u
X33 S_uq16 G D w_n59_64# sky130_fd_pr__pfet_01v8 ad=0p pd=0u as=0p ps=0u w=1.48e+06u l=150000u
X34 S_uq4 G D w_n59_64# sky130_fd_pr__pfet_01v8 ad=0p pd=0u as=0p ps=0u w=1.48e+06u l=150000u
X35 S_uq3 G D w_n59_64# sky130_fd_pr__pfet_01v8 ad=0p pd=0u as=0p ps=0u w=1.48e+06u l=150000u
X36 S_uq0 G D w_n59_64# sky130_fd_pr__pfet_01v8 ad=0p pd=0u as=0p ps=0u w=1.48e+06u l=150000u
X37 D G S_uq19 w_n59_64# sky130_fd_pr__pfet_01v8 ad=0p pd=0u as=0p ps=0u w=1.48e+06u l=150000u
X38 S_uq13 G D w_n59_64# sky130_fd_pr__pfet_01v8 ad=0p pd=0u as=0p ps=0u w=1.48e+06u l=150000u
X39 S_uq8 G D w_n59_64# sky130_fd_pr__pfet_01v8 ad=0p pd=0u as=0p ps=0u w=1.48e+06u l=150000u
.ends

.subckt nmos_m40_w0_495_sli_dli_da_p S S_uq0 S_uq1 S_uq3 S_uq2 S_uq4 S_uq10 S_uq5
+ S_uq11 S_uq6 S_uq13 S_uq12 S_uq7 S_uq14 S_uq8 S_uq15 S_uq9 S_uq16 S_uq17 gnd S_uq18
+ S_uq19 D G
X0 S_uq16 G D gnd sky130_fd_pr__nfet_01v8 ad=0p pd=0u as=0p ps=0u w=495000u l=150000u
X1 S_uq4 G D gnd sky130_fd_pr__nfet_01v8 ad=0p pd=0u as=0p ps=0u w=495000u l=150000u
X2 S_uq0 G D gnd sky130_fd_pr__nfet_01v8 ad=0p pd=0u as=0p ps=0u w=495000u l=150000u
X3 D G S_uq19 gnd sky130_fd_pr__nfet_01v8 ad=0p pd=0u as=0p ps=0u w=495000u l=150000u
X4 S_uq13 G D gnd sky130_fd_pr__nfet_01v8 ad=0p pd=0u as=0p ps=0u w=495000u l=150000u
X5 S_uq8 G D gnd sky130_fd_pr__nfet_01v8 ad=0p pd=0u as=0p ps=0u w=495000u l=150000u
X6 S_uq3 G D gnd sky130_fd_pr__nfet_01v8 ad=0p pd=0u as=0p ps=0u w=495000u l=150000u
X7 S_uq11 G D gnd sky130_fd_pr__nfet_01v8 ad=0p pd=0u as=0p ps=0u w=495000u l=150000u
X8 S_uq6 G D gnd sky130_fd_pr__nfet_01v8 ad=0p pd=0u as=0p ps=0u w=495000u l=150000u
X9 S_uq1 G D gnd sky130_fd_pr__nfet_01v8 ad=0p pd=0u as=0p ps=0u w=495000u l=150000u
X10 D G S_uq18 gnd sky130_fd_pr__nfet_01v8 ad=0p pd=0u as=0p ps=0u w=495000u l=150000u
X11 D G S_uq15 gnd sky130_fd_pr__nfet_01v8 ad=0p pd=0u as=0p ps=0u w=495000u l=150000u
X12 D G S_uq5 gnd sky130_fd_pr__nfet_01v8 ad=0p pd=0u as=0p ps=0u w=495000u l=150000u
X13 D G S gnd sky130_fd_pr__nfet_01v8 ad=0p pd=0u as=0p ps=0u w=495000u l=150000u
X14 S_uq18 G D gnd sky130_fd_pr__nfet_01v8 ad=0p pd=0u as=0p ps=0u w=495000u l=150000u
X15 D G S_uq14 gnd sky130_fd_pr__nfet_01v8 ad=0p pd=0u as=0p ps=0u w=495000u l=150000u
X16 D G S_uq12 gnd sky130_fd_pr__nfet_01v8 ad=0p pd=0u as=0p ps=0u w=495000u l=150000u
X17 D G S_uq9 gnd sky130_fd_pr__nfet_01v8 ad=0p pd=0u as=0p ps=0u w=495000u l=150000u
X18 D G S_uq7 gnd sky130_fd_pr__nfet_01v8 ad=0p pd=0u as=0p ps=0u w=495000u l=150000u
X19 D G S_uq4 gnd sky130_fd_pr__nfet_01v8 ad=0p pd=0u as=0p ps=0u w=495000u l=150000u
X20 D G S_uq2 gnd sky130_fd_pr__nfet_01v8 ad=0p pd=0u as=0p ps=0u w=495000u l=150000u
X21 S_uq15 G D gnd sky130_fd_pr__nfet_01v8 ad=0p pd=0u as=0p ps=0u w=495000u l=150000u
X22 S G D gnd sky130_fd_pr__nfet_01v8 ad=0p pd=0u as=0p ps=0u w=495000u l=150000u
X23 S_uq10 G D gnd sky130_fd_pr__nfet_01v8 ad=0p pd=0u as=0p ps=0u w=495000u l=150000u
X24 S_uq7 G D gnd sky130_fd_pr__nfet_01v8 ad=0p pd=0u as=0p ps=0u w=495000u l=150000u
X25 S_uq5 G D gnd sky130_fd_pr__nfet_01v8 ad=0p pd=0u as=0p ps=0u w=495000u l=150000u
X26 S_uq2 G D gnd sky130_fd_pr__nfet_01v8 ad=0p pd=0u as=0p ps=0u w=495000u l=150000u
X27 S_uq14 G D gnd sky130_fd_pr__nfet_01v8 ad=0p pd=0u as=0p ps=0u w=495000u l=150000u
X28 S_uq12 G D gnd sky130_fd_pr__nfet_01v8 ad=0p pd=0u as=0p ps=0u w=495000u l=150000u
X29 S_uq9 G D gnd sky130_fd_pr__nfet_01v8 ad=0p pd=0u as=0p ps=0u w=495000u l=150000u
X30 D G S_uq17 gnd sky130_fd_pr__nfet_01v8 ad=0p pd=0u as=0p ps=0u w=495000u l=150000u
X31 D G S_uq16 gnd sky130_fd_pr__nfet_01v8 ad=0p pd=0u as=0p ps=0u w=495000u l=150000u
X32 D G S_uq13 gnd sky130_fd_pr__nfet_01v8 ad=0p pd=0u as=0p ps=0u w=495000u l=150000u
X33 D G S_uq11 gnd sky130_fd_pr__nfet_01v8 ad=0p pd=0u as=0p ps=0u w=495000u l=150000u
X34 D G S_uq10 gnd sky130_fd_pr__nfet_01v8 ad=0p pd=0u as=0p ps=0u w=495000u l=150000u
X35 D G S_uq8 gnd sky130_fd_pr__nfet_01v8 ad=0p pd=0u as=0p ps=0u w=495000u l=150000u
X36 D G S_uq6 gnd sky130_fd_pr__nfet_01v8 ad=0p pd=0u as=0p ps=0u w=495000u l=150000u
X37 D G S_uq3 gnd sky130_fd_pr__nfet_01v8 ad=0p pd=0u as=0p ps=0u w=495000u l=150000u
X38 D G S_uq1 gnd sky130_fd_pr__nfet_01v8 ad=0p pd=0u as=0p ps=0u w=495000u l=150000u
X39 S_uq17 G D gnd sky130_fd_pr__nfet_01v8 ad=0p pd=0u as=0p ps=0u w=495000u l=150000u
.ends

.subckt pinv_10 Z gnd vdd A
Xpmos_m40_w1_480_sli_dli_da_p_0 vdd vdd vdd vdd vdd vdd vdd vdd vdd vdd vdd vdd vdd
+ vdd vdd vdd vdd vdd vdd vdd gnd vdd vdd Z A pmos_m40_w1_480_sli_dli_da_p
Xnmos_m40_w0_495_sli_dli_da_p_0 gnd gnd gnd gnd gnd gnd gnd gnd gnd gnd gnd gnd gnd
+ gnd gnd gnd gnd gnd gnd gnd gnd gnd Z A nmos_m40_w0_495_sli_dli_da_p
.ends

.subckt nmos_m1_w0_420_sli_dli_da_p S gnd D G
X0 D G S gnd sky130_fd_pr__nfet_01v8 ad=0p pd=0u as=0p ps=0u w=420000u l=150000u
.ends

.subckt pmos_m1_w1_260_sli_dli_da_p w_n59_42# S gnd D G
X0 D G S w_n59_42# sky130_fd_pr__pfet_01v8 ad=0p pd=0u as=0p ps=0u w=1.26e+06u l=150000u
.ends

.subckt pinv_0 A Z gnd vdd
Xnmos_m1_w0_420_sli_dli_da_p_0 gnd gnd Z A nmos_m1_w0_420_sli_dli_da_p
Xpmos_m1_w1_260_sli_dli_da_p_0 vdd vdd gnd Z A pmos_m1_w1_260_sli_dli_da_p
.ends

.subckt pdriver_1 vdd A Z gnd
Xpinv_9_0 pinv_9_0/Z vdd gnd pinv_9_0/A pinv_9
Xpinv_7_0 vdd pinv_8_0/A gnd pinv_7_0/A pinv_7
Xpinv_8_0 pinv_9_0/A gnd vdd pinv_8_0/A pinv_8
Xpinv_10_0 Z gnd vdd pinv_9_0/Z pinv_10
Xpinv_0_0 pinv_0_1/Z pinv_7_0/A gnd vdd pinv_0
Xpinv_0_1 A pinv_0_1/Z gnd vdd pinv_0
.ends

.subckt pinv_1 A Z gnd vdd
Xnmos_m1_w0_420_sli_dli_da_p_0 gnd gnd Z A nmos_m1_w0_420_sli_dli_da_p
Xpmos_m1_w1_260_sli_dli_da_p_0 vdd vdd gnd Z A pmos_m1_w1_260_sli_dli_da_p
.ends

.subckt nmos_m18_w0_490_sli_dli_da_p S S_uq0 S_uq1 S_uq3 S_uq2 S_uq4 S_uq5 S_uq6 S_uq7
+ S_uq8 gnd D G
X0 S_uq5 G D gnd sky130_fd_pr__nfet_01v8 ad=0p pd=0u as=0p ps=0u w=490000u l=150000u
X1 D G S_uq8 gnd sky130_fd_pr__nfet_01v8 ad=0p pd=0u as=0p ps=0u w=490000u l=150000u
X2 S_uq2 G D gnd sky130_fd_pr__nfet_01v8 ad=0p pd=0u as=0p ps=0u w=490000u l=150000u
X3 S G D gnd sky130_fd_pr__nfet_01v8 ad=0p pd=0u as=0p ps=0u w=490000u l=150000u
X4 D G S_uq7 gnd sky130_fd_pr__nfet_01v8 ad=0p pd=0u as=0p ps=0u w=490000u l=150000u
X5 D G S_uq4 gnd sky130_fd_pr__nfet_01v8 ad=0p pd=0u as=0p ps=0u w=490000u l=150000u
X6 S_uq7 G D gnd sky130_fd_pr__nfet_01v8 ad=0p pd=0u as=0p ps=0u w=490000u l=150000u
X7 D G S_uq3 gnd sky130_fd_pr__nfet_01v8 ad=0p pd=0u as=0p ps=0u w=490000u l=150000u
X8 D G S_uq1 gnd sky130_fd_pr__nfet_01v8 ad=0p pd=0u as=0p ps=0u w=490000u l=150000u
X9 S_uq4 G D gnd sky130_fd_pr__nfet_01v8 ad=0p pd=0u as=0p ps=0u w=490000u l=150000u
X10 S_uq0 G D gnd sky130_fd_pr__nfet_01v8 ad=0p pd=0u as=0p ps=0u w=490000u l=150000u
X11 S_uq3 G D gnd sky130_fd_pr__nfet_01v8 ad=0p pd=0u as=0p ps=0u w=490000u l=150000u
X12 S_uq1 G D gnd sky130_fd_pr__nfet_01v8 ad=0p pd=0u as=0p ps=0u w=490000u l=150000u
X13 D G S_uq6 gnd sky130_fd_pr__nfet_01v8 ad=0p pd=0u as=0p ps=0u w=490000u l=150000u
X14 D G S_uq5 gnd sky130_fd_pr__nfet_01v8 ad=0p pd=0u as=0p ps=0u w=490000u l=150000u
X15 D G S_uq2 gnd sky130_fd_pr__nfet_01v8 ad=0p pd=0u as=0p ps=0u w=490000u l=150000u
X16 D G S gnd sky130_fd_pr__nfet_01v8 ad=0p pd=0u as=0p ps=0u w=490000u l=150000u
X17 S_uq6 G D gnd sky130_fd_pr__nfet_01v8 ad=0p pd=0u as=0p ps=0u w=490000u l=150000u
.ends

.subckt pmos_m18_w1_470_sli_dli_da_p w_n59_63# S S_uq0 S_uq1 S_uq3 S_uq2 S_uq4 S_uq5
+ S_uq6 S_uq7 S_uq8 gnd D G
X0 D G S_uq7 w_n59_63# sky130_fd_pr__pfet_01v8 ad=0p pd=0u as=0p ps=0u w=1.47e+06u l=150000u
X1 S G D w_n59_63# sky130_fd_pr__pfet_01v8 ad=0p pd=0u as=0p ps=0u w=1.47e+06u l=150000u
X2 D G S_uq4 w_n59_63# sky130_fd_pr__pfet_01v8 ad=0p pd=0u as=0p ps=0u w=1.47e+06u l=150000u
X3 S_uq7 G D w_n59_63# sky130_fd_pr__pfet_01v8 ad=0p pd=0u as=0p ps=0u w=1.47e+06u l=150000u
X4 D G S_uq3 w_n59_63# sky130_fd_pr__pfet_01v8 ad=0p pd=0u as=0p ps=0u w=1.47e+06u l=150000u
X5 D G S_uq1 w_n59_63# sky130_fd_pr__pfet_01v8 ad=0p pd=0u as=0p ps=0u w=1.47e+06u l=150000u
X6 S_uq4 G D w_n59_63# sky130_fd_pr__pfet_01v8 ad=0p pd=0u as=0p ps=0u w=1.47e+06u l=150000u
X7 S_uq1 G D w_n59_63# sky130_fd_pr__pfet_01v8 ad=0p pd=0u as=0p ps=0u w=1.47e+06u l=150000u
X8 S_uq0 G D w_n59_63# sky130_fd_pr__pfet_01v8 ad=0p pd=0u as=0p ps=0u w=1.47e+06u l=150000u
X9 S_uq3 G D w_n59_63# sky130_fd_pr__pfet_01v8 ad=0p pd=0u as=0p ps=0u w=1.47e+06u l=150000u
X10 D G S_uq6 w_n59_63# sky130_fd_pr__pfet_01v8 ad=0p pd=0u as=0p ps=0u w=1.47e+06u l=150000u
X11 D G S_uq5 w_n59_63# sky130_fd_pr__pfet_01v8 ad=0p pd=0u as=0p ps=0u w=1.47e+06u l=150000u
X12 D G S_uq2 w_n59_63# sky130_fd_pr__pfet_01v8 ad=0p pd=0u as=0p ps=0u w=1.47e+06u l=150000u
X13 D G S w_n59_63# sky130_fd_pr__pfet_01v8 ad=0p pd=0u as=0p ps=0u w=1.47e+06u l=150000u
X14 S_uq6 G D w_n59_63# sky130_fd_pr__pfet_01v8 ad=0p pd=0u as=0p ps=0u w=1.47e+06u l=150000u
X15 S_uq5 G D w_n59_63# sky130_fd_pr__pfet_01v8 ad=0p pd=0u as=0p ps=0u w=1.47e+06u l=150000u
X16 D G S_uq8 w_n59_63# sky130_fd_pr__pfet_01v8 ad=0p pd=0u as=0p ps=0u w=1.47e+06u l=150000u
X17 S_uq2 G D w_n59_63# sky130_fd_pr__pfet_01v8 ad=0p pd=0u as=0p ps=0u w=1.47e+06u l=150000u
.ends

.subckt pinv_15 Z gnd vdd A
Xnmos_m18_w0_490_sli_dli_da_p_0 gnd gnd gnd gnd gnd gnd gnd gnd gnd gnd gnd Z A nmos_m18_w0_490_sli_dli_da_p
Xpmos_m18_w1_470_sli_dli_da_p_0 vdd vdd vdd vdd vdd vdd vdd vdd vdd vdd vdd gnd Z
+ A pmos_m18_w1_470_sli_dli_da_p
.ends

.subckt pmos_m6_w1_470_sli_dli_da_p w_n59_63# S S_uq0 S_uq1 S_uq2 gnd D G
X0 D G S_uq1 w_n59_63# sky130_fd_pr__pfet_01v8 ad=0p pd=0u as=0p ps=0u w=1.47e+06u l=150000u
X1 S_uq1 G D w_n59_63# sky130_fd_pr__pfet_01v8 ad=0p pd=0u as=0p ps=0u w=1.47e+06u l=150000u
X2 D G S w_n59_63# sky130_fd_pr__pfet_01v8 ad=0p pd=0u as=0p ps=0u w=1.47e+06u l=150000u
X3 S G D w_n59_63# sky130_fd_pr__pfet_01v8 ad=0p pd=0u as=0p ps=0u w=1.47e+06u l=150000u
X4 S_uq0 G D w_n59_63# sky130_fd_pr__pfet_01v8 ad=0p pd=0u as=0p ps=0u w=1.47e+06u l=150000u
X5 D G S_uq2 w_n59_63# sky130_fd_pr__pfet_01v8 ad=0p pd=0u as=0p ps=0u w=1.47e+06u l=150000u
.ends

.subckt nmos_m6_w0_490_sli_dli_da_p S S_uq0 S_uq1 S_uq2 gnd D G
X0 S_uq0 G D gnd sky130_fd_pr__nfet_01v8 ad=0p pd=0u as=0p ps=0u w=490000u l=150000u
X1 D G S_uq2 gnd sky130_fd_pr__nfet_01v8 ad=0p pd=0u as=0p ps=0u w=490000u l=150000u
X2 D G S_uq1 gnd sky130_fd_pr__nfet_01v8 ad=0p pd=0u as=0p ps=0u w=490000u l=150000u
X3 S_uq1 G D gnd sky130_fd_pr__nfet_01v8 ad=0p pd=0u as=0p ps=0u w=490000u l=150000u
X4 D G S gnd sky130_fd_pr__nfet_01v8 ad=0p pd=0u as=0p ps=0u w=490000u l=150000u
X5 S G D gnd sky130_fd_pr__nfet_01v8 ad=0p pd=0u as=0p ps=0u w=490000u l=150000u
.ends

.subckt pinv_14 Z gnd vdd A
Xpmos_m6_w1_470_sli_dli_da_p_0 vdd vdd vdd vdd vdd gnd Z A pmos_m6_w1_470_sli_dli_da_p
Xnmos_m6_w0_490_sli_dli_da_p_0 gnd gnd gnd gnd gnd Z A nmos_m6_w0_490_sli_dli_da_p
.ends

.subckt pdriver_4 gnd vdd Z A
Xpinv_7_0 vdd pinv_7_0/Z gnd pinv_7_0/A pinv_7
Xpinv_15_0 Z gnd vdd pinv_15_0/A pinv_15
Xpinv_14_0 pinv_15_0/A gnd vdd pinv_7_0/Z pinv_14
Xpinv_0_0 A pinv_7_0/A gnd vdd pinv_0
.ends

.subckt pinv_11 vdd Z gnd A
Xnmos_m4_w0_420_sli_dli_da_p_0 gnd gnd gnd gnd Z A nmos_m4_w0_420_sli_dli_da_p
Xpmos_m4_w1_260_sli_dli_da_p_0 vdd vdd vdd vdd gnd Z A pmos_m4_w1_260_sli_dli_da_p
.ends

.subckt nmos_m10_w0_460_sli_dli_da_p S S_uq0 S_uq1 S_uq3 S_uq2 S_uq4 gnd D G
X0 S_uq1 G D gnd sky130_fd_pr__nfet_01v8 ad=0p pd=0u as=0p ps=0u w=460000u l=150000u
X1 D G S_uq4 gnd sky130_fd_pr__nfet_01v8 ad=0p pd=0u as=0p ps=0u w=460000u l=150000u
X2 D G S_uq3 gnd sky130_fd_pr__nfet_01v8 ad=0p pd=0u as=0p ps=0u w=460000u l=150000u
X3 D G S gnd sky130_fd_pr__nfet_01v8 ad=0p pd=0u as=0p ps=0u w=460000u l=150000u
X4 S_uq3 G D gnd sky130_fd_pr__nfet_01v8 ad=0p pd=0u as=0p ps=0u w=460000u l=150000u
X5 S G D gnd sky130_fd_pr__nfet_01v8 ad=0p pd=0u as=0p ps=0u w=460000u l=150000u
X6 S_uq0 G D gnd sky130_fd_pr__nfet_01v8 ad=0p pd=0u as=0p ps=0u w=460000u l=150000u
X7 D G S_uq2 gnd sky130_fd_pr__nfet_01v8 ad=0p pd=0u as=0p ps=0u w=460000u l=150000u
X8 D G S_uq1 gnd sky130_fd_pr__nfet_01v8 ad=0p pd=0u as=0p ps=0u w=460000u l=150000u
X9 S_uq2 G D gnd sky130_fd_pr__nfet_01v8 ad=0p pd=0u as=0p ps=0u w=460000u l=150000u
.ends

.subckt pmos_m10_w1_385_sli_dli_da_p S S_uq0 S_uq1 S_uq3 S_uq2 S_uq4 gnd w_n59_55#
+ D G
X0 D G S_uq3 w_n59_55# sky130_fd_pr__pfet_01v8 ad=0p pd=0u as=0p ps=0u w=1.385e+06u l=150000u
X1 D G S w_n59_55# sky130_fd_pr__pfet_01v8 ad=0p pd=0u as=0p ps=0u w=1.385e+06u l=150000u
X2 S_uq3 G D w_n59_55# sky130_fd_pr__pfet_01v8 ad=0p pd=0u as=0p ps=0u w=1.385e+06u l=150000u
X3 S G D w_n59_55# sky130_fd_pr__pfet_01v8 ad=0p pd=0u as=0p ps=0u w=1.385e+06u l=150000u
X4 S_uq0 G D w_n59_55# sky130_fd_pr__pfet_01v8 ad=0p pd=0u as=0p ps=0u w=1.385e+06u l=150000u
X5 D G S_uq2 w_n59_55# sky130_fd_pr__pfet_01v8 ad=0p pd=0u as=0p ps=0u w=1.385e+06u l=150000u
X6 D G S_uq1 w_n59_55# sky130_fd_pr__pfet_01v8 ad=0p pd=0u as=0p ps=0u w=1.385e+06u l=150000u
X7 S_uq2 G D w_n59_55# sky130_fd_pr__pfet_01v8 ad=0p pd=0u as=0p ps=0u w=1.385e+06u l=150000u
X8 S_uq1 G D w_n59_55# sky130_fd_pr__pfet_01v8 ad=0p pd=0u as=0p ps=0u w=1.385e+06u l=150000u
X9 D G S_uq4 w_n59_55# sky130_fd_pr__pfet_01v8 ad=0p pd=0u as=0p ps=0u w=1.385e+06u l=150000u
.ends

.subckt pinv_12 gnd vdd Z A
Xnmos_m10_w0_460_sli_dli_da_p_0 gnd gnd gnd gnd gnd gnd gnd Z A nmos_m10_w0_460_sli_dli_da_p
Xpmos_m10_w1_385_sli_dli_da_p_0 vdd vdd vdd vdd vdd vdd gnd vdd Z A pmos_m10_w1_385_sli_dli_da_p
.ends

.subckt pdriver_2 vdd A Z gnd
Xpinv_11_0 vdd pinv_12_0/A gnd pinv_0_0/Z pinv_11
Xpinv_12_0 gnd vdd Z pinv_12_0/A pinv_12
Xpinv_0_0 pinv_0_1/Z pinv_0_0/Z gnd vdd pinv_0
Xpinv_0_1 A pinv_0_1/Z gnd vdd pinv_0
.ends

.subckt pnand2_1 Z gnd vdd A
Xpmos_m1_w1_260_sli_dli_0 vdd Z gnd vdd B pmos_m1_w1_260_sli_dli
Xpmos_m1_w1_260_sli_dli_1 vdd vdd gnd Z A pmos_m1_w1_260_sli_dli
Xnmos_m1_w0_840_sli_dactive_0 gnd gnd A nmos_m1_w0_840_sactive_dli_0/a_0_0# nmos_m1_w0_840_sli_dactive
Xnmos_m1_w0_840_sactive_dli_0 nmos_m1_w0_840_sactive_dli_0/a_0_0# gnd Z B nmos_m1_w0_840_sactive_dli
.ends

.subckt pmos_m21_w1_440_sli_dli_da_p w_n59_60# S S_uq0 S_uq1 S_uq3 S_uq2 S_uq4 S_uq5
+ S_uq6 S_uq7 S_uq8 S_uq9 gnd D G
X0 D G S_uq8 w_n59_60# sky130_fd_pr__pfet_01v8 ad=0p pd=0u as=0p ps=0u w=1.44e+06u l=150000u
X1 S_uq1 G D w_n59_60# sky130_fd_pr__pfet_01v8 ad=0p pd=0u as=0p ps=0u w=1.44e+06u l=150000u
X2 D G S_uq5 w_n59_60# sky130_fd_pr__pfet_01v8 ad=0p pd=0u as=0p ps=0u w=1.44e+06u l=150000u
X3 S_uq8 G D w_n59_60# sky130_fd_pr__pfet_01v8 ad=0p pd=0u as=0p ps=0u w=1.44e+06u l=150000u
X4 D G S_uq4 w_n59_60# sky130_fd_pr__pfet_01v8 ad=0p pd=0u as=0p ps=0u w=1.44e+06u l=150000u
X5 D G S_uq2 w_n59_60# sky130_fd_pr__pfet_01v8 ad=0p pd=0u as=0p ps=0u w=1.44e+06u l=150000u
X6 D G S_uq0 w_n59_60# sky130_fd_pr__pfet_01v8 ad=0p pd=0u as=0p ps=0u w=1.44e+06u l=150000u
X7 S_uq5 G D w_n59_60# sky130_fd_pr__pfet_01v8 ad=0p pd=0u as=0p ps=0u w=1.44e+06u l=150000u