* NGSPICE file created from sram_0rw2r1w_2_16_sky130A.ext - technology: sky130A

.subckt dff clk vdd gnd D Q
X0 net3 net2 vdd vdd sky130_fd_pr__pfet_01v8 ad=0p pd=0u as=0p ps=0u w=1.35e+06u l=150000u
X1 gnd net7 a_922_96# gnd sky130_fd_pr__nfet_01v8 ad=0p pd=0u as=0p ps=0u w=420000u l=150000u
X2 vdd clk clkb vdd sky130_fd_pr__pfet_01v8 ad=0p pd=0u as=0p ps=0u w=1.35e+06u l=150000u
X3 net3 net2 gnd gnd sky130_fd_pr__nfet_01v8 ad=0p pd=0u as=0p ps=0u w=420000u l=150000u
X4 vdd net3 net4 vdd sky130_fd_pr__pfet_01v8 ad=0p pd=0u as=0p ps=0u w=1.35e+06u l=150000u
X5 gnd net3 a_474_96# gnd sky130_fd_pr__nfet_01v8 ad=0p pd=0u as=0p ps=0u w=420000u l=150000u
X6 gnd clk clkb gnd sky130_fd_pr__nfet_01v8 ad=0p pd=0u as=0p ps=0u w=420000u l=150000u
X7 a_922_96# clkb net6 gnd sky130_fd_pr__nfet_01v8 ad=0p pd=0u as=0p ps=0u w=420000u l=150000u
X8 a_474_96# clk net2 gnd sky130_fd_pr__nfet_01v8 ad=0p pd=0u as=0p ps=0u w=420000u l=150000u
X9 net4 clkb net2 vdd sky130_fd_pr__pfet_01v8 ad=0p pd=0u as=0p ps=0u w=1.35e+06u l=150000u
X10 net6 clk net3 gnd sky130_fd_pr__nfet_01v8 ad=0p pd=0u as=0p ps=0u w=420000u l=150000u
X11 net2 clkb net1 gnd sky130_fd_pr__nfet_01v8 ad=0p pd=0u as=0p ps=0u w=420000u l=150000u
X12 net7 net6 vdd vdd sky130_fd_pr__pfet_01v8 ad=0p pd=0u as=0p ps=0u w=1.35e+06u l=150000u
X13 net8 clk net6 vdd sky130_fd_pr__pfet_01v8 ad=0p pd=0u as=0p ps=0u w=1.35e+06u l=150000u
X14 net2 clk net1 vdd sky130_fd_pr__pfet_01v8 ad=0p pd=0u as=0p ps=0u w=1.35e+06u l=150000u
X15 net1 D gnd gnd sky130_fd_pr__nfet_01v8 ad=0p pd=0u as=0p ps=0u w=420000u l=150000u
X16 vdd net7 net8 vdd sky130_fd_pr__pfet_01v8 ad=0p pd=0u as=0p ps=0u w=1.35e+06u l=150000u
X17 net1 D vdd vdd sky130_fd_pr__pfet_01v8 ad=0p pd=0u as=0p ps=0u w=1.35e+06u l=150000u
X18 net6 clkb net3 vdd sky130_fd_pr__pfet_01v8 ad=0p pd=0u as=0p ps=0u w=1.35e+06u l=150000u
X19 Q net7 vdd vdd sky130_fd_pr__pfet_01v8 ad=0p pd=0u as=0p ps=0u w=1.35e+06u l=150000u
X20 net7 net6 gnd gnd sky130_fd_pr__nfet_01v8 ad=0p pd=0u as=0p ps=0u w=420000u l=150000u
X21 Q net7 gnd gnd sky130_fd_pr__nfet_01v8 ad=0p pd=0u as=0p ps=0u w=420000u l=150000u
.ends

.subckt nmos_m4_w0_420_sli_dli_da_p S S_uq0 S_uq1 gnd D G
X0 D G S_uq1 gnd sky130_fd_pr__nfet_01v8 ad=0p pd=0u as=0p ps=0u w=420000u l=150000u
X1 D G S gnd sky130_fd_pr__nfet_01v8 ad=0p pd=0u as=0p ps=0u w=420000u l=150000u
X2 S G D gnd sky130_fd_pr__nfet_01v8 ad=0p pd=0u as=0p ps=0u w=420000u l=150000u
X3 S_uq0 G D gnd sky130_fd_pr__nfet_01v8 ad=0p pd=0u as=0p ps=0u w=420000u l=150000u
.ends

.subckt pmos_m4_w1_260_sli_dli_da_p w_n59_42# S S_uq0 S_uq1 gnd D G
X0 D G S w_n59_42# sky130_fd_pr__pfet_01v8 ad=0p pd=0u as=0p ps=0u w=1.26e+06u l=150000u
X1 S G D w_n59_42# sky130_fd_pr__pfet_01v8 ad=0p pd=0u as=0p ps=0u w=1.26e+06u l=150000u
X2 S_uq0 G D w_n59_42# sky130_fd_pr__pfet_01v8 ad=0p pd=0u as=0p ps=0u w=1.26e+06u l=150000u
X3 D G S_uq1 w_n59_42# sky130_fd_pr__pfet_01v8 ad=0p pd=0u as=0p ps=0u w=1.26e+06u l=150000u
.ends

.subckt pinv_1 vdd Z gnd A
Xnmos_m4_w0_420_sli_dli_da_p_0 gnd gnd gnd gnd Z A nmos_m4_w0_420_sli_dli_da_p
Xpmos_m4_w1_260_sli_dli_da_p_0 vdd vdd vdd vdd gnd Z A pmos_m4_w1_260_sli_dli_da_p
.ends

.subckt nmos_m2_w0_420_sli_dli_da_p S S_uq0 gnd D G
X0 D G S gnd sky130_fd_pr__nfet_01v8 ad=0p pd=0u as=0p ps=0u w=420000u l=150000u
X1 S_uq0 G D gnd sky130_fd_pr__nfet_01v8 ad=0p pd=0u as=0p ps=0u w=420000u l=150000u
.ends

.subckt pmos_m2_w1_260_sli_dli_da_p w_n59_42# S S_uq0 gnd D G
X0 S_uq0 G D w_n59_42# sky130_fd_pr__pfet_01v8 ad=0p pd=0u as=0p ps=0u w=1.26e+06u l=150000u
X1 D G S w_n59_42# sky130_fd_pr__pfet_01v8 ad=0p pd=0u as=0p ps=0u w=1.26e+06u l=150000u
.ends

.subckt pinv_0 Z gnd vdd A
Xnmos_m2_w0_420_sli_dli_da_p_0 gnd gnd gnd Z A nmos_m2_w0_420_sli_dli_da_p
Xpmos_m2_w1_260_sli_dli_da_p_0 vdd vdd vdd gnd Z A pmos_m2_w1_260_sli_dli_da_p
.ends

.subckt dff_buf_0 gnd pinv_1_0/vdd clk Q D Qb vdd
Xdff_0 clk vdd gnd D dff_0/Q dff
Xpinv_1_0 pinv_1_0/vdd Q gnd Qb pinv_1
Xpinv_0_0 Qb gnd pinv_1_0/vdd dff_0/Q pinv_0
.ends

.subckt dff_buf_array vdd dout_0 dout_1 dff_buf_0_1/pinv_1_0/vdd din_1 dout_bar_0
+ dout_bar_1 din_0
Xdff_buf_0_1 vdd dff_buf_0_1/pinv_1_0/vdd vdd dout_0 din_0 dout_bar_0 vdd dff_buf_0
Xdff_buf_0_0 vdd dff_buf_0_1/pinv_1_0/vdd vdd dout_1 din_1 dout_bar_1 vdd dff_buf_0
.ends

.subckt nmos_m1_w0_420_sli_dli_da_p S gnd D G
X0 D G S gnd sky130_fd_pr__nfet_01v8 ad=0p pd=0u as=0p ps=0u w=420000u l=150000u
.ends

.subckt pmos_m1_w1_260_sli_dli_da_p w_n59_42# S gnd D G
X0 D G S w_n59_42# sky130_fd_pr__pfet_01v8 ad=0p pd=0u as=0p ps=0u w=1.26e+06u l=150000u
.ends

.subckt pinv_5 Z A gnd vdd
Xnmos_m1_w0_420_sli_dli_da_p_0 gnd gnd Z A nmos_m1_w0_420_sli_dli_da_p
Xpmos_m1_w1_260_sli_dli_da_p_0 vdd vdd gnd Z A pmos_m1_w1_260_sli_dli_da_p
.ends

.subckt pdriver_3 Z gnd vdd A
Xpinv_5_0 Z pinv_5_1/Z gnd vdd pinv_5
Xpinv_5_1 pinv_5_1/Z A gnd vdd pinv_5
.ends

.subckt pinv_3 Z gnd vdd A
Xnmos_m1_w0_420_sli_dli_da_p_0 gnd gnd Z A nmos_m1_w0_420_sli_dli_da_p
Xpmos_m1_w1_260_sli_dli_da_p_0 vdd vdd gnd Z A pmos_m1_w1_260_sli_dli_da_p
.ends

.subckt pmos_m1_w1_260_sli_dli w_n59_42# S gnd D G
X0 D G S w_n59_42# sky130_fd_pr__pfet_01v8 ad=0p pd=0u as=0p ps=0u w=1.26e+06u l=150000u
.ends

.subckt nmos_m1_w0_840_sli_dactive S gnd G a_90_0#
X0 a_90_0# G S gnd sky130_fd_pr__nfet_01v8 ad=0p pd=0u as=0p ps=0u w=840000u l=150000u
.ends

.subckt nmos_m1_w0_840_sactive_dli a_0_0# gnd D G
X0 D G a_0_0# gnd sky130_fd_pr__nfet_01v8 ad=0p pd=0u as=0p ps=0u w=840000u l=150000u
.ends

.subckt pnand2_0 w_n36_402# Z gnd A
Xpmos_m1_w1_260_sli_dli_0 w_n36_402# Z gnd Z Z pmos_m1_w1_260_sli_dli
Xpmos_m1_w1_260_sli_dli_1 w_n36_402# Z gnd Z A pmos_m1_w1_260_sli_dli
Xnmos_m1_w0_840_sli_dactive_0 gnd gnd A nmos_m1_w0_840_sactive_dli_0/a_0_0# nmos_m1_w0_840_sli_dactive
Xnmos_m1_w0_840_sactive_dli_0 nmos_m1_w0_840_sactive_dli_0/a_0_0# gnd Z Z nmos_m1_w0_840_sactive_dli
.ends

.subckt pmos_m9_w1_400_sli_dli_da_p S S_uq0 S_uq1 S_uq3 S_uq2 w_n59_56# gnd D G
X0 D G S_uq2 w_n59_56# sky130_fd_pr__pfet_01v8 ad=0p pd=0u as=0p ps=0u w=1.4e+06u l=150000u
X1 D G S_uq0 w_n59_56# sky130_fd_pr__pfet_01v8 ad=0p pd=0u as=0p ps=0u w=1.4e+06u l=150000u
X2 S_uq2 G D w_n59_56# sky130_fd_pr__pfet_01v8 ad=0p pd=0u as=0p ps=0u w=1.4e+06u l=150000u
X3 S_uq0 G D w_n59_56# sky130_fd_pr__pfet_01v8 ad=0p pd=0u as=0p ps=0u w=1.4e+06u l=150000u
X4 D G S_uq1 w_n59_56# sky130_fd_pr__pfet_01v8 ad=0p pd=0u as=0p ps=0u w=1.4e+06u l=150000u
X5 D G S w_n59_56# sky130_fd_pr__pfet_01v8 ad=0p pd=0u as=0p ps=0u w=1.4e+06u l=150000u
X6 S_uq1 G D w_n59_56# sky130_fd_pr__pfet_01v8 ad=0p pd=0u as=0p ps=0u w=1.4e+06u l=150000u
X7 S G D w_n59_56# sky130_fd_pr__pfet_01v8 ad=0p pd=0u as=0p ps=0u w=1.4e+06u l=150000u
X8 D G S_uq3 w_n59_56# sky130_fd_pr__pfet_01v8 ad=0p pd=0u as=0p ps=0u w=1.4e+06u l=150000u
.ends

.subckt nmos_m9_w0_465_sli_dli_da_p S S_uq0 S_uq1 S_uq3 S_uq2 gnd D G
X0 S G D gnd sky130_fd_pr__nfet_01v8 ad=0p pd=0u as=0p ps=0u w=465000u l=150000u
X1 D G S_uq3 gnd sky130_fd_pr__nfet_01v8 ad=0p pd=0u as=0p ps=0u w=465000u l=150000u
X2 D G S_uq2 gnd sky130_fd_pr__nfet_01v8 ad=0p pd=0u as=0p ps=0u w=465000u l=150000u
X3 D G S_uq0 gnd sky130_fd_pr__nfet_01v8 ad=0p pd=0u as=0p ps=0u w=465000u l=150000u
X4 S_uq2 G D gnd sky130_fd_pr__nfet_01v8 ad=0p pd=0u as=0p ps=0u w=465000u l=150000u
X5 S_uq0 G D gnd sky130_fd_pr__nfet_01v8 ad=0p pd=0u as=0p ps=0u w=465000u l=150000u
X6 D G S_uq1 gnd sky130_fd_pr__nfet_01v8 ad=0p pd=0u as=0p ps=0u w=465000u l=150000u
X7 D G S gnd sky130_fd_pr__nfet_01v8 ad=0p pd=0u as=0p ps=0u w=465000u l=150000u
X8 S_uq1 G D gnd sky130_fd_pr__nfet_01v8 ad=0p pd=0u as=0p ps=0u w=465000u l=150000u
.ends

.subckt pinv_9 Z gnd vdd A
Xpmos_m9_w1_400_sli_dli_da_p_0 vdd vdd vdd vdd vdd vdd gnd Z A pmos_m9_w1_400_sli_dli_da_p
Xnmos_m9_w0_465_sli_dli_da_p_0 gnd gnd gnd gnd gnd gnd Z A nmos_m9_w0_465_sli_dli_da_p
.ends

.subckt pdriver_2 Z gnd vdd A
Xpinv_9_0 Z gnd vdd A pinv_9
.ends

.subckt pand2_0 Z gnd B A
Xpnand2_0_0 B B gnd A pnand2_0
Xpdriver_2_0 Z gnd B B pdriver_2
.ends

.subckt nmos_m5_w0_420_sli_dli_da_p S S_uq0 S_uq1 gnd D G
X0 D G S_uq1 gnd sky130_fd_pr__nfet_01v8 ad=0p pd=0u as=0p ps=0u w=420000u l=150000u
X1 D G S gnd sky130_fd_pr__nfet_01v8 ad=0p pd=0u as=0p ps=0u w=420000u l=150000u
X2 S G D gnd sky130_fd_pr__nfet_01v8 ad=0p pd=0u as=0p ps=0u w=420000u l=150000u
X3 D G S_uq0 gnd sky130_fd_pr__nfet_01v8 ad=0p pd=0u as=0p ps=0u w=420000u l=150000u
X4 S_uq0 G D gnd sky130_fd_pr__nfet_01v8 ad=0p pd=0u as=0p ps=0u w=420000u l=150000u
.ends

.subckt pmos_m5_w1_260_sli_dli_da_p w_n59_42# S S_uq0 S_uq1 gnd D G
X0 D G S w_n59_42# sky130_fd_pr__pfet_01v8 ad=0p pd=0u as=0p ps=0u w=1.26e+06u l=150000u
X1 S G D w_n59_42# sky130_fd_pr__pfet_01v8 ad=0p pd=0u as=0p ps=0u w=1.26e+06u l=150000u
X2 D G S_uq0 w_n59_42# sky130_fd_pr__pfet_01v8 ad=0p pd=0u as=0p ps=0u w=1.26e+06u l=150000u
X3 S_uq0 G D w_n59_42# sky130_fd_pr__pfet_01v8 ad=0p pd=0u as=0p ps=0u w=1.26e+06u l=150000u
X4 D G S_uq1 w_n59_42# sky130_fd_pr__pfet_01v8 ad=0p pd=0u as=0p ps=0u w=1.26e+06u l=150000u
.ends

.subckt pinv_7 Z gnd vdd A
Xnmos_m5_w0_420_sli_dli_da_p_0 gnd gnd gnd gnd Z A nmos_m5_w0_420_sli_dli_da_p
Xpmos_m5_w1_260_sli_dli_da_p_0 vdd vdd vdd vdd gnd Z A pmos_m5_w1_260_sli_dli_da_p
.ends

.subckt pinv_6 vdd Z gnd A
Xnmos_m2_w0_420_sli_dli_da_p_0 gnd gnd gnd Z A nmos_m2_w0_420_sli_dli_da_p
Xpmos_m2_w1_260_sli_dli_da_p_0 vdd vdd vdd gnd Z A pmos_m2_w1_260_sli_dli_da_p
.ends

.subckt pdriver_1 vdd Z gnd A
Xpinv_7_0 Z gnd vdd pinv_7_0/A pinv_7
Xpinv_5_0 pinv_6_0/A pinv_5_1/Z gnd vdd pinv_5
Xpinv_5_1 pinv_5_1/Z A gnd vdd pinv_5
Xpinv_6_0 vdd pinv_7_0/A gnd pinv_6_0/A pinv_6
.ends

.subckt pmos_m11_w1_375_sli_dli_da_p S S_uq0 S_uq1 S_uq3 S_uq2 S_uq4 gnd w_n59_53#
+ D G
X0 D G S_uq3 w_n59_53# sky130_fd_pr__pfet_01v8 ad=0p pd=0u as=0p ps=0u w=1.375e+06u l=150000u
X1 D G S w_n59_53# sky130_fd_pr__pfet_01v8 ad=0p pd=0u as=0p ps=0u w=1.375e+06u l=150000u
X2 S_uq3 G D w_n59_53# sky130_fd_pr__pfet_01v8 ad=0p pd=0u as=0p ps=0u w=1.375e+06u l=150000u
X3 D G S_uq0 w_n59_53# sky130_fd_pr__pfet_01v8 ad=0p pd=0u as=0p ps=0u w=1.375e+06u l=150000u
X4 S G D w_n59_53# sky130_fd_pr__pfet_01v8 ad=0p pd=0u as=0p ps=0u w=1.375e+06u l=150000u
X5 S_uq0 G D w_n59_53# sky130_fd_pr__pfet_01v8 ad=0p pd=0u as=0p ps=0u w=1.375e+06u l=150000u
X6 D G S_uq2 w_n59_53# sky130_fd_pr__pfet_01v8 ad=0p pd=0u as=0p ps=0u w=1.375e+06u l=150000u
X7 D G S_uq1 w_n59_53# sky130_fd_pr__pfet_01v8 ad=0p pd=0u as=0p ps=0u w=1.375e+06u l=150000u
X8 S_uq2 G D w_n59_53# sky130_fd_pr__pfet_01v8 ad=0p pd=0u as=0p ps=0u w=1.375e+06u l=150000u
X9 S_uq1 G D w_n59_53# sky130_fd_pr__pfet_01v8 ad=0p pd=0u as=0p ps=0u w=1.375e+06u l=150000u
X10 D G S_uq4 w_n59_53# sky130_fd_pr__pfet_01v8 ad=0p pd=0u as=0p ps=0u w=1.375e+06u l=150000u
.ends

.subckt nmos_m11_w0_460_sli_dli_da_p S S_uq0 S_uq1 S_uq3 S_uq2 S_uq4 gnd D G
X0 S_uq1 G D gnd sky130_fd_pr__nfet_01v8 ad=0p pd=0u as=0p ps=0u w=460000u l=150000u
X1 D G S_uq4 gnd sky130_fd_pr__nfet_01v8 ad=0p pd=0u as=0p ps=0u w=460000u l=150000u
X2 D G S_uq3 gnd sky130_fd_pr__nfet_01v8 ad=0p pd=0u as=0p ps=0u w=460000u l=150000u
X3 D G S gnd sky130_fd_pr__nfet_01v8 ad=0p pd=0u as=0p ps=0u w=460000u l=150000u
X4 S_uq3 G D gnd sky130_fd_pr__nfet_01v8 ad=0p pd=0u as=0p ps=0u w=460000u l=150000u
X5 D G S_uq0 gnd sky130_fd_pr__nfet_01v8 ad=0p pd=0u as=0p ps=0u w=460000u l=150000u
X6 S G D gnd sky130_fd_pr__nfet_01v8 ad=0p pd=0u as=0p ps=0u w=460000u l=150000u
X7 S_uq0 G D gnd sky130_fd_pr__nfet_01v8 ad=0p pd=0u as=0p ps=0u w=460000u l=150000u
X8 D G S_uq2 gnd sky130_fd_pr__nfet_01v8 ad=0p pd=0u as=0p ps=0u w=460000u l=150000u
X9 D G S_uq1 gnd sky130_fd_pr__nfet_01v8 ad=0p pd=0u as=0p ps=0u w=460000u l=150000u
X10 S_uq2 G D gnd sky130_fd_pr__nfet_01v8 ad=0p pd=0u as=0p ps=0u w=460000u l=150000u
.ends

.subckt pinv_2 gnd vdd Z A
Xpmos_m11_w1_375_sli_dli_da_p_0 vdd vdd vdd vdd vdd vdd gnd vdd Z A pmos_m11_w1_375_sli_dli_da_p
Xnmos_m11_w0_460_sli_dli_da_p_0 gnd gnd gnd gnd gnd gnd gnd Z A nmos_m11_w0_460_sli_dli_da_p
.ends

.subckt pdriver vdd gnd Z A
Xpinv_2_0 gnd vdd Z A pinv_2
.ends

.subckt pand2 B gnd Z A
Xpnand2_0_0 B B gnd A pnand2_0
Xpdriver_0 B gnd Z B pdriver
.ends

.subckt pnand2_1 Z gnd A
Xpmos_m1_w1_260_sli_dli_0 Z Z gnd Z Z pmos_m1_w1_260_sli_dli
Xpmos_m1_w1_260_sli_dli_1 Z Z gnd Z A pmos_m1_w1_260_sli_dli
Xnmos_m1_w0_840_sli_dactive_0 gnd gnd A nmos_m1_w0_840_sactive_dli_0/a_0_0# nmos_m1_w0_840_sli_dactive
Xnmos_m1_w0_840_sactive_dli_0 nmos_m1_w0_840_sactive_dli_0/a_0_0# gnd Z Z nmos_m1_w0_840_sactive_dli
.ends

.subckt pmos_m13_w1_455_sli_dli_da_p w_n59_61# S S_uq0 S_uq1 S_uq3 S_uq2 S_uq4 S_uq5
+ gnd D G
X0 D G S_uq4 w_n59_61# sky130_fd_pr__pfet_01v8 ad=0p pd=0u as=0p ps=0u w=1.455e+06u l=150000u
X1 D G S_uq1 w_n59_61# sky130_fd_pr__pfet_01v8 ad=0p pd=0u as=0p ps=0u w=1.455e+06u l=150000u
X2 S_uq4 G D w_n59_61# sky130_fd_pr__pfet_01v8 ad=0p pd=0u as=0p ps=0u w=1.455e+06u l=150000u
X3 D G S w_n59_61# sky130_fd_pr__pfet_01v8 ad=0p pd=0u as=0p ps=0u w=1.455e+06u l=150000u
X4 S_uq1 G D w_n59_61# sky130_fd_pr__pfet_01v8 ad=0p pd=0u as=0p ps=0u w=1.455e+06u l=150000u
X5 S G D w_n59_61# sky130_fd_pr__pfet_01v8 ad=0p pd=0u as=0p ps=0u w=1.455e+06u l=150000u
X6 D G S_uq3 w_n59_61# sky130_fd_pr__pfet_01v8 ad=0p pd=0u as=0p ps=0u w=1.455e+06u l=150000u
X7 D G S_uq2 w_n59_61# sky130_fd_pr__pfet_01v8 ad=0p pd=0u as=0p ps=0u w=1.455e+06u l=150000u
X8 D G S_uq0 w_n59_61# sky130_fd_pr__pfet_01v8 ad=0p pd=0u as=0p ps=0u w=1.455e+06u l=150000u
X9 S_uq3 G D w_n59_61# sky130_fd_pr__pfet_01v8 ad=0p pd=0u as=0p ps=0u w=1.455e+06u l=150000u
X10 S_uq2 G D w_n59_61# sky130_fd_pr__pfet_01v8 ad=0p pd=0u as=0p ps=0u w=1.455e+06u l=150000u
X11 D G S_uq5 w_n59_61# sky130_fd_pr__pfet_01v8 ad=0p pd=0u as=0p ps=0u w=1.455e+06u l=150000u
X12 S_uq0 G D w_n59_61# sky130_fd_pr__pfet_01v8 ad=0p pd=0u as=0p ps=0u w=1.455e+06u l=150000u
.ends

.subckt nmos_m13_w0_485_sli_dli_da_p S S_uq0 S_uq1 S_uq3 S_uq2 S_uq4 S_uq5 gnd D G
X0 S_uq2 G D gnd sky130_fd_pr__nfet_01v8 ad=0p pd=0u as=0p ps=0u w=485000u l=150000u
X1 D G S_uq5 gnd sky130_fd_pr__nfet_01v8 ad=0p pd=0u as=0p ps=0u w=485000u l=150000u
X2 S_uq0 G D gnd sky130_fd_pr__nfet_01v8 ad=0p pd=0u as=0p ps=0u w=485000u l=150000u
X3 D G S_uq4 gnd sky130_fd_pr__nfet_01v8 ad=0p pd=0u as=0p ps=0u w=485000u l=150000u
X4 D G S_uq1 gnd sky130_fd_pr__nfet_01v8 ad=0p pd=0u as=0p ps=0u w=485000u l=150000u
X5 S_uq4 G D gnd sky130_fd_pr__nfet_01v8 ad=0p pd=0u as=0p ps=0u w=485000u l=150000u
X6 D G S gnd sky130_fd_pr__nfet_01v8 ad=0p pd=0u as=0p ps=0u w=485000u l=150000u
X7 S_uq1 G D gnd sky130_fd_pr__nfet_01v8 ad=0p pd=0u as=0p ps=0u w=485000u l=150000u
X8 S G D gnd sky130_fd_pr__nfet_01v8 ad=0p pd=0u as=0p ps=0u w=485000u l=150000u
X9 D G S_uq3 gnd sky130_fd_pr__nfet_01v8 ad=0p pd=0u as=0p ps=0u w=485000u l=150000u
X10 D G S_uq2 gnd sky130_fd_pr__nfet_01v8 ad=0p pd=0u as=0p ps=0u w=485000u l=150000u
X11 D G S_uq0 gnd sky130_fd_pr__nfet_01v8 ad=0p pd=0u as=0p ps=0u w=485000u l=150000u
X12 S_uq3 G D gnd sky130_fd_pr__nfet_01v8 ad=0p pd=0u as=0p ps=0u w=485000u l=150000u
.ends

.subckt pinv_8 gnd vdd Z A
Xpmos_m13_w1_455_sli_dli_da_p_0 vdd vdd vdd vdd vdd vdd vdd vdd gnd Z A pmos_m13_w1_455_sli_dli_da_p
Xnmos_m13_w0_485_sli_dli_da_p_0 gnd gnd gnd gnd gnd gnd gnd gnd Z A nmos_m13_w0_485_sli_dli_da_p
.ends

.subckt pdriver_0 Z gnd vdd A
Xpinv_7_0 pinv_8_0/A gnd vdd pinv_7_0/A pinv_7
Xpinv_5_0 pinv_6_0/A A gnd vdd pinv_5
Xpinv_8_0 gnd vdd Z pinv_8_0/A pinv_8
Xpinv_6_0 vdd pinv_7_0/A gnd pinv_6_0/A pinv_6
.ends

.subckt control_logic_multiport vdd pand2_1/Z p_en_bar pnand2_1_0/Z dff_buf_array_0/dff_buf_0_1/pinv_1_0/vdd
+ clk web csb wl_en w_en
Xdff_buf_array_0 vdd dff_buf_array_0/dout_0 dff_buf_array_0/dout_1 dff_buf_array_0/dff_buf_0_1/pinv_1_0/vdd
+ csb pand2_0_0/A pand2_1/Z web dff_buf_array
Xpdriver_3_0 p_en_bar vdd pnand2_1_0/Z pnand2_1_0/Z pdriver_3
Xpinv_3_0 pand2_1/A vdd pand2_1/Z vdd pinv_3
Xpand2_0_0 w_en vdd pand2_1/Z pand2_0_0/A pand2_0
Xpdriver_1_0 pnand2_1_0/Z wl_en vdd pand2_1/Z pdriver_1
Xpand2_0 pand2_1/Z vdd pand2_0/Z vdd pand2
Xpand2_1 pand2_1/Z vdd pand2_1/Z pand2_1/A pand2
Xpnand2_1_0 pnand2_1_0/Z vdd pand2_0/Z pnand2_1
Xpdriver_0_0 vdd vdd pand2_1/Z clk pdriver_0
.ends

.subckt data_dff vdd clk gnd din_0 din_1
Xdff_0 clk vdd gnd din_1 dout_1 dff
Xdff_1 clk vdd gnd din_0 dout_0 dff
.ends

.subckt row_addr_dff dout_2 vdd_uq0 vdd_uq1 dout_4 vdd_uq2 clk vdd din_3 gnd dout_0
+ dout_1 dout_3 dout_5 din_0 din_1 din_2 din_4 din_5
Xdff_0 clk vdd_uq2 gnd din_7 dout_7 dff
Xdff_1 clk vdd_uq2 gnd din_6 dout_6 dff
Xdff_2 clk vdd_uq1 gnd din_5 dout_5 dff
Xdff_3 clk vdd_uq1 gnd din_4 dout_4 dff
Xdff_4 clk vdd gnd din_3 dout_3 dff
Xdff_5 clk vdd gnd din_2 dout_2 dff
Xdff_6 clk vdd_uq0 gnd din_1 dout_1 dff
Xdff_7 clk vdd_uq0 gnd din_0 dout_0 dff
.ends

.subckt sense_amp_multiport vdd gnd rbl dout
X0 dout rbl gnd gnd sky130_fd_pr__nfet_01v8 ad=0p pd=0u as=0p ps=0u w=420000u l=150000u
X1 dout rbl vdd vdd sky130_fd_pr__pfet_01v8 ad=0p pd=0u as=0p ps=0u w=2.7e+06u l=150000u
.ends

.subckt sense_amp_array vdd_uq0 vdd_uq1 vdd_uq2 gnd data_0 data_1 vdd
Xsense_amp_multiport_0 vdd_uq0 gnd rbl_3 data_3 sense_amp_multiport
Xsense_amp_multiport_1 vdd gnd rbl_2 data_2 sense_amp_multiport
Xsense_amp_multiport_2 vdd_uq1 gnd rbl_1 data_1 sense_amp_multiport
Xsense_amp_multiport_3 vdd_uq2 gnd rbl_0 data_0 sense_amp_multiport
.ends

.subckt write_driver_multiport din vdd gnd en wbl
X0 net2 net1 vdd vdd sky130_fd_pr__pfet_01v8 ad=0p pd=0u as=0p ps=0u w=1.35e+06u l=150000u
X1 net1 din gnd gnd sky130_fd_pr__nfet_01v8 ad=0p pd=0u as=0p ps=0u w=420000u l=150000u
X2 wbl en a_478_138# gnd sky130_fd_pr__nfet_01v8 ad=0p pd=0u as=0p ps=0u w=420000u l=150000u
X3 gnd en enb gnd sky130_fd_pr__nfet_01v8 ad=0p pd=0u as=0p ps=0u w=420000u l=150000u
X4 a_478_138# net1 gnd gnd sky130_fd_pr__nfet_01v8 ad=0p pd=0u as=0p ps=0u w=420000u l=150000u
X5 net1 din vdd vdd sky130_fd_pr__pfet_01v8 ad=0p pd=0u as=0p ps=0u w=1.35e+06u l=150000u
X6 wbl enb net2 vdd sky130_fd_pr__pfet_01v8 ad=0p pd=0u as=0p ps=0u w=1.35e+06u l=150000u
X7 vdd en enb vdd sky130_fd_pr__pfet_01v8 ad=0p pd=0u as=0p ps=0u w=1.35e+06u l=150000u
.ends

.subckt write_driver_array vdd_uq0 en wbl0_0 gnd vdd din_0 din_1
Xwrite_driver_multiport_0 din_1 vdd_uq0 gnd en wbl0_1 write_driver_multiport
Xwrite_driver_multiport_1 din_0 vdd gnd en wbl0_0 write_driver_multiport
.ends

.subckt precharge_multiport_0 en_bar rbl1 gnd rbl0 vdd
Xpmos_m1_w1_260_sli_dli_0 vdd vdd gnd rbl1 en_bar pmos_m1_w1_260_sli_dli
Xpmos_m1_w1_260_sli_dli_1 vdd rbl0 gnd vdd en_bar pmos_m1_w1_260_sli_dli
Xpmos_m1_w1_260_sli_dli_2 vdd rbl0 gnd rbl1 en_bar pmos_m1_w1_260_sli_dli
.ends

.subckt precharge_array_multiport rbl0_0 vdd rbl0_1 rbl1_2 rbl1_0 en_bar rbl1_1 gnd
Xprecharge_multiport_0_1 en_bar rbl1_1 gnd rbl0_1 vdd precharge_multiport_0
Xprecharge_multiport_0_2 en_bar rbl1_0 gnd rbl0_0 vdd precharge_multiport_0
Xprecharge_multiport_0_0 en_bar rbl1_2 gnd rbl0_2 vdd precharge_multiport_0
.ends

.subckt port_data vdd_uq2 vdd p_en_bar vdd_uq5 vdd_uq3 vdd_uq4 vdd_uq6 vdd_uq7 dout1_0
+ dout1_1 precharge_array_multiport_0/rbl1_2 gnd w_en din0_0 din0_1
Xsense_amp_array_0 vdd_uq2 vdd_uq4 vdd_uq5 gnd dout1_0 dout1_1 vdd_uq3 sense_amp_array
Xwrite_driver_array_0 vdd_uq6 w_en wbl0_0 gnd vdd_uq7 din0_0 din0_1 write_driver_array
Xprecharge_array_multiport_0 rbl0_0 vdd rbl0_1 precharge_array_multiport_0/rbl1_2
+ rbl1_0 p_en_bar rbl1_1 gnd precharge_array_multiport
.ends

.subckt pinv Z A gnd vdd
Xnmos_m1_w0_420_sli_dli_da_p_0 gnd gnd Z A nmos_m1_w0_420_sli_dli_da_p
Xpmos_m1_w1_260_sli_dli_da_p_0 vdd vdd gnd Z A pmos_m1_w1_260_sli_dli_da_p
.ends

.subckt pnand2 Z gnd vdd A B
Xpmos_m1_w1_260_sli_dli_0 vdd Z gnd vdd B pmos_m1_w1_260_sli_dli
Xpmos_m1_w1_260_sli_dli_1 vdd vdd gnd Z A pmos_m1_w1_260_sli_dli
Xnmos_m1_w0_840_sli_dactive_0 gnd gnd A nmos_m1_w0_840_sactive_dli_0/a_0_0# nmos_m1_w0_840_sli_dactive
Xnmos_m1_w0_840_sactive_dli_0 nmos_m1_w0_840_sactive_dli_0/a_0_0# gnd Z B nmos_m1_w0_840_sactive_dli
.ends

.subckt and2_dec Z gnd vdd A B
Xpinv_0 Z pinv_0/A gnd vdd pinv
Xpnand2_0 pinv_0/A gnd vdd A B pnand2
.ends

.subckt hierarchical_predecode2x4 vdd_uq0 in_1 gnd vdd out_0 out_1 out_2 out_3 in_0
Xand2_dec_0 out_3 gnd vdd in_0 in_1 and2_dec
Xand2_dec_1 out_2 gnd vdd pinv_1/Z in_1 and2_dec
Xpinv_0 pinv_0/Z in_1 gnd vdd_uq0 pinv
Xand2_dec_2 out_1 gnd vdd_uq0 in_0 pinv_0/Z and2_dec
Xpinv_1 pinv_1/Z in_0 gnd vdd_uq0 pinv
Xand2_dec_3 out_0 gnd vdd_uq0 pinv_1/Z pinv_0/Z and2_dec
.ends

.subckt dec_cell3_2r1w A0 B0 C0 A1 B1 C1 A2 B2 C2 OUT1 OUT0 OUT2 vdd gnd a_124_230#
+ a_808_230# a_412_230# net3 net6 a_220_230# net9 a_904_230# a_508_230#
X0 a_124_230# A0 net3 gnd sky130_fd_pr__nfet_01v8 ad=0p pd=0u as=0p ps=0u w=1e+06u l=150000u
X1 net6 A1 vdd vdd sky130_fd_pr__pfet_01v8 ad=0p pd=0u as=0p ps=0u w=420000u l=150000u
X2 OUT2 net9 vdd vdd sky130_fd_pr__pfet_01v8 ad=0p pd=0u as=0p ps=0u w=1.35e+06u l=150000u
X3 vdd C0 net3 vdd sky130_fd_pr__pfet_01v8 ad=0p pd=0u as=0p ps=0u w=420000u l=150000u
X4 OUT2 net9 gnd gnd sky130_fd_pr__nfet_01v8 ad=0p pd=0u as=0p ps=0u w=420000u l=150000u
X5 net6 C1 vdd vdd sky130_fd_pr__pfet_01v8 ad=0p pd=0u as=0p ps=0u w=420000u l=150000u
X6 vdd C2 net9 vdd sky130_fd_pr__pfet_01v8 ad=0p pd=0u as=0p ps=0u w=420000u l=150000u
X7 OUT1 net6 vdd vdd sky130_fd_pr__pfet_01v8 ad=0p pd=0u as=0p ps=0u w=1.35e+06u l=150000u
X8 vdd B1 net6 vdd sky130_fd_pr__pfet_01v8 ad=0p pd=0u as=0p ps=0u w=420000u l=150000u
X9 vdd A0 net3 vdd sky130_fd_pr__pfet_01v8 ad=0p pd=0u as=0p ps=0u w=420000u l=150000u
X10 net9 B2 vdd vdd sky130_fd_pr__pfet_01v8 ad=0p pd=0u as=0p ps=0u w=420000u l=150000u
X11 vdd net3 OUT0 vdd sky130_fd_pr__pfet_01v8 ad=0p pd=0u as=0p ps=0u w=1.35e+06u l=150000u
X12 a_220_230# B0 a_124_230# gnd sky130_fd_pr__nfet_01v8 ad=0p pd=0u as=0p ps=0u w=1e+06u l=150000u
X13 OUT1 net6 gnd gnd sky130_fd_pr__nfet_01v8 ad=0p pd=0u as=0p ps=0u w=420000u l=150000u
X14 gnd C0 a_220_230# gnd sky130_fd_pr__nfet_01v8 ad=0p pd=0u as=0p ps=0u w=1e+06u l=150000u
X15 a_412_230# A1 gnd gnd sky130_fd_pr__nfet_01v8 ad=0p pd=0u as=0p ps=0u w=1e+06u l=150000u
X16 net6 C1 a_508_230# gnd sky130_fd_pr__nfet_01v8 ad=0p pd=0u as=0p ps=0u w=1e+06u l=150000u
X17 gnd net3 OUT0 gnd sky130_fd_pr__nfet_01v8 ad=0p pd=0u as=0p ps=0u w=420000u l=150000u
X18 a_508_230# B1 a_412_230# gnd sky130_fd_pr__nfet_01v8 ad=0p pd=0u as=0p ps=0u w=1e+06u l=150000u
X19 net3 B0 vdd vdd sky130_fd_pr__pfet_01v8 ad=0p pd=0u as=0p ps=0u w=420000u l=150000u
X20 a_904_230# B2 a_808_230# gnd sky130_fd_pr__nfet_01v8 ad=0p pd=0u as=0p ps=0u w=1e+06u l=150000u
X21 gnd C2 a_904_230# gnd sky130_fd_pr__nfet_01v8 ad=0p pd=0u as=0p ps=0u w=1e+06u l=150000u
X22 a_808_230# A2 net9 gnd sky130_fd_pr__nfet_01v8 ad=0p pd=0u as=0p ps=0u w=1e+06u l=150000u
X23 vdd A2 net9 vdd sky130_fd_pr__pfet_01v8 ad=0p pd=0u as=0p ps=0u w=420000u l=150000u
.ends

.subckt hierarchical_decoder vdd_uq8 addr_0 decode0_6 decode2_9 decode1_10 addr_1
+ vdd vdd_uq9 decode0_7 decode1_11 addr_2 vdd_uq13 vdd_uq2 decode0_8 decode1_12 addr_3
+ decode0_9 decode1_13 addr_4 vdd_uq4 decode1_14 vdd_uq16 addr_5 decode1_15 vdd_uq6
+ decode1_0 decode1_1 decode2_10 decode1_2 vdd_uq18 decode1_3 decode2_11 decode2_12
+ decode1_4 decode1_5 decode2_13 vdd_uq12 decode2_14 decode1_6 decode2_15 decode1_7
+ decode1_8 vdd_uq15 decode1_9 decode0_10 vdd_uq14 decode0_11 decode0_12 vdd_uq17
+ decode2_0 decode0_13 decode2_1 decode0_14 decode0_15 decode2_2 decode0_0 decode2_3
+ decode2_4 decode0_1 decode0_2 decode2_5 decode2_6 decode0_3 decode0_4 decode2_7
+ decode2_8 decode0_5
Xhierarchical_predecode2x4_0 vdd_uq8 addr_5 vdd vdd_uq9 vdd predecode_9 vdd predecode_11
+ addr_4 hierarchical_predecode2x4
Xhierarchical_predecode2x4_1 vdd_uq4 addr_3 vdd vdd_uq6 vdd predecode_5 predecode_6
+ vdd addr_2 hierarchical_predecode2x4
Xhierarchical_predecode2x4_2 vdd addr_1 vdd vdd_uq2 vdd vdd predecode_2 vdd addr_0
+ hierarchical_predecode2x4
Xdec_cell3_2r1w_40 vdd predecode_5 predecode_9 vdd predecode_5 predecode_9 predecode_2
+ predecode_5 predecode_9 decode1_7 decode0_7 decode2_7 vdd_uq14 vdd dec_cell3_2r1w_40/a_124_230#
+ dec_cell3_2r1w_40/a_808_230# dec_cell3_2r1w_40/a_412_230# dec_cell3_2r1w_40/net3
+ dec_cell3_2r1w_40/net6 dec_cell3_2r1w_40/a_220_230# dec_cell3_2r1w_40/net9 dec_cell3_2r1w_40/a_904_230#
+ dec_cell3_2r1w_40/a_508_230# dec_cell3_2r1w
Xdec_cell3_2r1w_30 vdd vdd vdd vdd vdd vdd vdd vdd vdd vdd vdd vdd vdd vdd dec_cell3_2r1w_9/a_124_230#
+ dec_cell3_2r1w_9/a_808_230# dec_cell3_2r1w_9/a_412_230# vdd vdd dec_cell3_2r1w_9/a_220_230#
+ vdd dec_cell3_2r1w_9/a_904_230# dec_cell3_2r1w_9/a_508_230# dec_cell3_2r1w
Xdec_cell3_2r1w_41 vdd vdd predecode_9 predecode_2 vdd predecode_9 vdd vdd predecode_9
+ decode1_6 decode0_6 decode2_6 vdd_uq14 vdd dec_cell3_2r1w_41/a_124_230# dec_cell3_2r1w_41/a_808_230#
+ dec_cell3_2r1w_41/a_412_230# dec_cell3_2r1w_41/net3 dec_cell3_2r1w_41/net6 dec_cell3_2r1w_41/a_220_230#
+ dec_cell3_2r1w_41/net9 dec_cell3_2r1w_41/a_904_230# dec_cell3_2r1w_41/a_508_230#
+ dec_cell3_2r1w
Xdec_cell3_2r1w_0 vdd vdd vdd vdd vdd vdd vdd vdd vdd vdd vdd vdd vdd vdd dec_cell3_2r1w_9/a_124_230#
+ dec_cell3_2r1w_9/a_808_230# dec_cell3_2r1w_9/a_412_230# vdd vdd dec_cell3_2r1w_9/a_220_230#
+ vdd dec_cell3_2r1w_9/a_904_230# dec_cell3_2r1w_9/a_508_230# dec_cell3_2r1w
Xdec_cell3_2r1w_20 vdd vdd vdd vdd vdd vdd vdd vdd vdd vdd vdd vdd vdd vdd dec_cell3_2r1w_9/a_124_230#
+ dec_cell3_2r1w_9/a_808_230# dec_cell3_2r1w_9/a_412_230# vdd vdd dec_cell3_2r1w_9/a_220_230#
+ vdd dec_cell3_2r1w_9/a_904_230# dec_cell3_2r1w_9/a_508_230# dec_cell3_2r1w
Xdec_cell3_2r1w_31 vdd vdd vdd vdd vdd vdd vdd vdd vdd vdd vdd vdd vdd vdd dec_cell3_2r1w_9/a_124_230#
+ dec_cell3_2r1w_9/a_808_230# dec_cell3_2r1w_9/a_412_230# vdd vdd dec_cell3_2r1w_9/a_220_230#
+ vdd dec_cell3_2r1w_9/a_904_230# dec_cell3_2r1w_9/a_508_230# dec_cell3_2r1w
Xdec_cell3_2r1w_42 predecode_2 vdd vdd vdd vdd vdd vdd vdd predecode_9 decode1_5 decode0_5
+ decode2_5 vdd_uq13 vdd dec_cell3_2r1w_42/a_124_230# dec_cell3_2r1w_42/a_808_230#
+ dec_cell3_2r1w_42/a_412_230# dec_cell3_2r1w_42/net3 dec_cell3_2r1w_42/net6 dec_cell3_2r1w_42/a_220_230#
+ dec_cell3_2r1w_42/net9 dec_cell3_2r1w_42/a_904_230# dec_cell3_2r1w_42/a_508_230#
+ dec_cell3_2r1w
Xdec_cell3_2r1w_1 vdd vdd vdd vdd vdd vdd vdd vdd vdd vdd vdd vdd vdd vdd dec_cell3_2r1w_9/a_124_230#
+ dec_cell3_2r1w_9/a_808_230# dec_cell3_2r1w_9/a_412_230# vdd vdd dec_cell3_2r1w_9/a_220_230#
+ vdd dec_cell3_2r1w_9/a_904_230# dec_cell3_2r1w_9/a_508_230# dec_cell3_2r1w
Xdec_cell3_2r1w_32 vdd vdd vdd vdd vdd vdd predecode_2 vdd vdd decode1_15 decode0_15
+ decode2_15 vdd_uq18 vdd dec_cell3_2r1w_32/a_124_230# dec_cell3_2r1w_32/a_808_230#
+ dec_cell3_2r1w_32/a_412_230# dec_cell3_2r1w_32/net3 dec_cell3_2r1w_32/net6 dec_cell3_2r1w_32/a_220_230#
+ dec_cell3_2r1w_32/net9 dec_cell3_2r1w_32/a_904_230# dec_cell3_2r1w_32/a_508_230#
+ dec_cell3_2r1w
Xdec_cell3_2r1w_43 vdd predecode_6 vdd vdd vdd vdd vdd vdd vdd decode1_4 decode0_4
+ decode2_4 vdd_uq13 vdd dec_cell3_2r1w_43/a_124_230# dec_cell3_2r1w_43/a_808_230#
+ dec_cell3_2r1w_43/a_412_230# dec_cell3_2r1w_43/net3 dec_cell3_2r1w_43/net6 dec_cell3_2r1w_43/a_220_230#
+ dec_cell3_2r1w_43/net9 dec_cell3_2r1w_43/a_904_230# dec_cell3_2r1w_43/a_508_230#
+ dec_cell3_2r1w
Xdec_cell3_2r1w_10 vdd vdd vdd vdd vdd vdd vdd vdd vdd vdd vdd vdd vdd vdd dec_cell3_2r1w_9/a_124_230#
+ dec_cell3_2r1w_9/a_808_230# dec_cell3_2r1w_9/a_412_230# vdd vdd dec_cell3_2r1w_9/a_220_230#
+ vdd dec_cell3_2r1w_9/a_904_230# dec_cell3_2r1w_9/a_508_230# dec_cell3_2r1w
Xdec_cell3_2r1w_21 vdd vdd vdd vdd vdd vdd vdd vdd vdd vdd vdd vdd vdd vdd dec_cell3_2r1w_9/a_124_230#
+ dec_cell3_2r1w_9/a_808_230# dec_cell3_2r1w_9/a_412_230# vdd vdd dec_cell3_2r1w_9/a_220_230#
+ vdd dec_cell3_2r1w_9/a_904_230# dec_cell3_2r1w_9/a_508_230# dec_cell3_2r1w
Xdec_cell3_2r1w_2 vdd vdd vdd vdd vdd vdd vdd vdd vdd vdd vdd vdd vdd vdd dec_cell3_2r1w_9/a_124_230#
+ dec_cell3_2r1w_9/a_808_230# dec_cell3_2r1w_9/a_412_230# vdd vdd dec_cell3_2r1w_9/a_220_230#
+ vdd dec_cell3_2r1w_9/a_904_230# dec_cell3_2r1w_9/a_508_230# dec_cell3_2r1w
Xdec_cell3_2r1w_33 vdd predecode_6 vdd predecode_2 predecode_6 vdd vdd predecode_6
+ vdd decode1_14 decode0_14 decode2_14 vdd_uq18 vdd dec_cell3_2r1w_33/a_124_230# dec_cell3_2r1w_33/a_808_230#
+ dec_cell3_2r1w_33/a_412_230# dec_cell3_2r1w_33/net3 dec_cell3_2r1w_33/net6 dec_cell3_2r1w_33/a_220_230#
+ dec_cell3_2r1w_33/net9 dec_cell3_2r1w_33/a_904_230# dec_cell3_2r1w_33/a_508_230#
+ dec_cell3_2r1w
Xdec_cell3_2r1w_44 vdd predecode_6 vdd vdd predecode_6 vdd predecode_2 predecode_6
+ vdd decode1_3 decode0_3 decode2_3 vdd_uq12 vdd dec_cell3_2r1w_44/a_124_230# dec_cell3_2r1w_44/a_808_230#
+ dec_cell3_2r1w_44/a_412_230# dec_cell3_2r1w_44/net3 dec_cell3_2r1w_44/net6 dec_cell3_2r1w_44/a_220_230#
+ dec_cell3_2r1w_44/net9 dec_cell3_2r1w_44/a_904_230# dec_cell3_2r1w_44/a_508_230#
+ dec_cell3_2r1w
Xdec_cell3_2r1w_11 vdd vdd vdd vdd vdd vdd vdd vdd vdd vdd vdd vdd vdd vdd dec_cell3_2r1w_9/a_124_230#
+ dec_cell3_2r1w_9/a_808_230# dec_cell3_2r1w_9/a_412_230# vdd vdd dec_cell3_2r1w_9/a_220_230#
+ vdd dec_cell3_2r1w_9/a_904_230# dec_cell3_2r1w_9/a_508_230# dec_cell3_2r1w
Xdec_cell3_2r1w_22 vdd vdd vdd vdd vdd vdd vdd vdd vdd vdd vdd vdd vdd vdd dec_cell3_2r1w_9/a_124_230#
+ dec_cell3_2r1w_9/a_808_230# dec_cell3_2r1w_9/a_412_230# vdd vdd dec_cell3_2r1w_9/a_220_230#
+ vdd dec_cell3_2r1w_9/a_904_230# dec_cell3_2r1w_9/a_508_230# dec_cell3_2r1w
Xdec_cell3_2r1w_3 vdd vdd vdd vdd vdd vdd vdd vdd vdd vdd vdd vdd vdd vdd dec_cell3_2r1w_9/a_124_230#
+ dec_cell3_2r1w_9/a_808_230# dec_cell3_2r1w_9/a_412_230# vdd vdd dec_cell3_2r1w_9/a_220_230#
+ vdd dec_cell3_2r1w_9/a_904_230# dec_cell3_2r1w_9/a_508_230# dec_cell3_2r1w
Xdec_cell3_2r1w_34 predecode_2 predecode_5 vdd vdd predecode_5 vdd vdd predecode_6
+ vdd decode1_13 decode0_13 decode2_13 vdd_uq17 vdd dec_cell3_2r1w_34/a_124_230# dec_cell3_2r1w_34/a_808_230#
+ dec_cell3_2r1w_34/a_412_230# dec_cell3_2r1w_34/net3 dec_cell3_2r1w_34/net6 dec_cell3_2r1w_34/a_220_230#
+ dec_cell3_2r1w_34/net9 dec_cell3_2r1w_34/a_904_230# dec_cell3_2r1w_34/a_508_230#
+ dec_cell3_2r1w
Xdec_cell3_2r1w_45 vdd predecode_5 vdd predecode_2 predecode_5 vdd vdd predecode_5