**************************************************
* OpenRAM generated memory.
* Words: 128
* Data bits: 8
* Banks: 1
* Column mux: 4:1
* Trimmed: False
* LVS: False
**************************************************
* SPICE3 file created from cell_fast.ext - technology: sky130A

.subckt cell_2r1w rbl0 rbl1 wbl0 rwl0 rwl1 wwl0 vdd gnd
X0 rbl1 rwl1 net3 gnd sky130_fd_pr__nfet_01v8 w=0.84 l=0.15
X1 net2 q gnd gnd sky130_fd_pr__nfet_01v8 w=0.84 l=0.15
X2 q q_bar vdd vdd sky130_fd_pr__pfet_01v8 w=0.84 l=0.15
X3 q_bar q gnd gnd sky130_fd_pr__nfet_01v8 w=0.42 l=0.15
X4 rbl0 rwl0 net2 gnd sky130_fd_pr__nfet_01v8 w=0.84 l=0.15
X5 gnd q net3 gnd sky130_fd_pr__nfet_01v8 w=0.84 l=0.15
X6 vdd q q_bar vdd sky130_fd_pr__pfet_01v8 w=0.84 l=0.15
X7 gnd q_bar q gnd sky130_fd_pr__nfet_01v8 w=0.42 l=0.15
X8 net1 wbl0 gnd gnd sky130_fd_pr__nfet_01v8 w=0.42 l=0.15
X9 wbl0 wwl0 q gnd sky130_fd_pr__nfet_01v8 w=0.84 l=0.15
X10 net1 wwl0 q_bar gnd sky130_fd_pr__nfet_01v8 w=0.84 l=0.15
X11 net1 wbl0 vdd vdd sky130_fd_pr__pfet_01v8 w=0.84 l=0.15
.ends

.SUBCKT bitcell_array read_bl_0_0 read_bl_1_0 read_bl_0_1 read_bl_1_1 read_bl_0_2 read_bl_1_2 read_bl_0_3 read_bl_1_3 read_bl_0_4 read_bl_1_4 read_bl_0_5 read_bl_1_5 read_bl_0_6 read_bl_1_6 read_bl_0_7 read_bl_1_7 read_bl_0_8 read_bl_1_8 read_bl_0_9 read_bl_1_9 read_bl_0_10 read_bl_1_10 read_bl_0_11 read_bl_1_11 read_bl_0_12 read_bl_1_12 read_bl_0_13 read_bl_1_13 read_bl_0_14 read_bl_1_14 read_bl_0_15 read_bl_1_15 read_bl_0_16 read_bl_1_16 read_bl_0_17 read_bl_1_17 read_bl_0_18 read_bl_1_18 read_bl_0_19 read_bl_1_19 read_bl_0_20 read_bl_1_20 read_bl_0_21 read_bl_1_21 read_bl_0_22 read_bl_1_22 read_bl_0_23 read_bl_1_23 read_bl_0_24 read_bl_1_24 read_bl_0_25 read_bl_1_25 read_bl_0_26 read_bl_1_26 read_bl_0_27 read_bl_1_27 read_bl_0_28 read_bl_1_28 read_bl_0_29 read_bl_1_29 read_bl_0_30 read_bl_1_30 read_bl_0_31 read_bl_1_31 write_bl_0_0 write_bl_0_1 write_bl_0_2 write_bl_0_3 write_bl_0_4 write_bl_0_5 write_bl_0_6 write_bl_0_7 write_bl_0_8 write_bl_0_9 write_bl_0_10 write_bl_0_11 write_bl_0_12 write_bl_0_13 write_bl_0_14 write_bl_0_15 write_bl_0_16 write_bl_0_17 write_bl_0_18 write_bl_0_19 write_bl_0_20 write_bl_0_21 write_bl_0_22 write_bl_0_23 write_bl_0_24 write_bl_0_25 write_bl_0_26 write_bl_0_27 write_bl_0_28 write_bl_0_29 write_bl_0_30 write_bl_0_31 rwl_0_0 rwl_1_0 rwl_0_1 rwl_1_1 rwl_0_2 rwl_1_2 rwl_0_3 rwl_1_3 rwl_0_4 rwl_1_4 rwl_0_5 rwl_1_5 rwl_0_6 rwl_1_6 rwl_0_7 rwl_1_7 rwl_0_8 rwl_1_8 rwl_0_9 rwl_1_9 rwl_0_10 rwl_1_10 rwl_0_11 rwl_1_11 rwl_0_12 rwl_1_12 rwl_0_13 rwl_1_13 rwl_0_14 rwl_1_14 rwl_0_15 rwl_1_15 rwl_0_16 rwl_1_16 rwl_0_17 rwl_1_17 rwl_0_18 rwl_1_18 rwl_0_19 rwl_1_19 rwl_0_20 rwl_1_20 rwl_0_21 rwl_1_21 rwl_0_22 rwl_1_22 rwl_0_23 rwl_1_23 rwl_0_24 rwl_1_24 rwl_0_25 rwl_1_25 rwl_0_26 rwl_1_26 rwl_0_27 rwl_1_27 rwl_0_28 rwl_1_28 rwl_0_29 rwl_1_29 rwl_0_30 rwl_1_30 rwl_0_31 rwl_1_31 wwl_0_0 wwl_0_1 wwl_0_2 wwl_0_3 wwl_0_4 wwl_0_5 wwl_0_6 wwl_0_7 wwl_0_8 wwl_0_9 wwl_0_10 wwl_0_11 wwl_0_12 wwl_0_13 wwl_0_14 wwl_0_15 wwl_0_16 wwl_0_17 wwl_0_18 wwl_0_19 wwl_0_20 wwl_0_21 wwl_0_22 wwl_0_23 wwl_0_24 wwl_0_25 wwl_0_26 wwl_0_27 wwl_0_28 wwl_0_29 wwl_0_30 wwl_0_31 vdd gnd
*.PININFO read_bl_0_0:B read_bl_1_0:B read_bl_0_1:B read_bl_1_1:B read_bl_0_2:B read_bl_1_2:B read_bl_0_3:B read_bl_1_3:B read_bl_0_4:B read_bl_1_4:B read_bl_0_5:B read_bl_1_5:B read_bl_0_6:B read_bl_1_6:B read_bl_0_7:B read_bl_1_7:B read_bl_0_8:B read_bl_1_8:B read_bl_0_9:B read_bl_1_9:B read_bl_0_10:B read_bl_1_10:B read_bl_0_11:B read_bl_1_11:B read_bl_0_12:B read_bl_1_12:B read_bl_0_13:B read_bl_1_13:B read_bl_0_14:B read_bl_1_14:B read_bl_0_15:B read_bl_1_15:B read_bl_0_16:B read_bl_1_16:B read_bl_0_17:B read_bl_1_17:B read_bl_0_18:B read_bl_1_18:B read_bl_0_19:B read_bl_1_19:B read_bl_0_20:B read_bl_1_20:B read_bl_0_21:B read_bl_1_21:B read_bl_0_22:B read_bl_1_22:B read_bl_0_23:B read_bl_1_23:B read_bl_0_24:B read_bl_1_24:B read_bl_0_25:B read_bl_1_25:B read_bl_0_26:B read_bl_1_26:B read_bl_0_27:B read_bl_1_27:B read_bl_0_28:B read_bl_1_28:B read_bl_0_29:B read_bl_1_29:B read_bl_0_30:B read_bl_1_30:B read_bl_0_31:B read_bl_1_31:B write_bl_0_0:I write_bl_0_1:I write_bl_0_2:I write_bl_0_3:I write_bl_0_4:I write_bl_0_5:I write_bl_0_6:I write_bl_0_7:I write_bl_0_8:I write_bl_0_9:I write_bl_0_10:I write_bl_0_11:I write_bl_0_12:I write_bl_0_13:I write_bl_0_14:I write_bl_0_15:I write_bl_0_16:I write_bl_0_17:I write_bl_0_18:I write_bl_0_19:I write_bl_0_20:I write_bl_0_21:I write_bl_0_22:I write_bl_0_23:I write_bl_0_24:I write_bl_0_25:I write_bl_0_26:I write_bl_0_27:I write_bl_0_28:I write_bl_0_29:I write_bl_0_30:I write_bl_0_31:I rwl_0_0:I rwl_1_0:I rwl_0_1:I rwl_1_1:I rwl_0_2:I rwl_1_2:I rwl_0_3:I rwl_1_3:I rwl_0_4:I rwl_1_4:I rwl_0_5:I rwl_1_5:I rwl_0_6:I rwl_1_6:I rwl_0_7:I rwl_1_7:I rwl_0_8:I rwl_1_8:I rwl_0_9:I rwl_1_9:I rwl_0_10:I rwl_1_10:I rwl_0_11:I rwl_1_11:I rwl_0_12:I rwl_1_12:I rwl_0_13:I rwl_1_13:I rwl_0_14:I rwl_1_14:I rwl_0_15:I rwl_1_15:I rwl_0_16:I rwl_1_16:I rwl_0_17:I rwl_1_17:I rwl_0_18:I rwl_1_18:I rwl_0_19:I rwl_1_19:I rwl_0_20:I rwl_1_20:I rwl_0_21:I rwl_1_21:I rwl_0_22:I rwl_1_22:I rwl_0_23:I rwl_1_23:I rwl_0_24:I rwl_1_24:I rwl_0_25:I rwl_1_25:I rwl_0_26:I rwl_1_26:I rwl_0_27:I rwl_1_27:I rwl_0_28:I rwl_1_28:I rwl_0_29:I rwl_1_29:I rwl_0_30:I rwl_1_30:I rwl_0_31:I rwl_1_31:I wwl_0_0:I wwl_0_1:I wwl_0_2:I wwl_0_3:I wwl_0_4:I wwl_0_5:I wwl_0_6:I wwl_0_7:I wwl_0_8:I wwl_0_9:I wwl_0_10:I wwl_0_11:I wwl_0_12:I wwl_0_13:I wwl_0_14:I wwl_0_15:I wwl_0_16:I wwl_0_17:I wwl_0_18:I wwl_0_19:I wwl_0_20:I wwl_0_21:I wwl_0_22:I wwl_0_23:I wwl_0_24:I wwl_0_25:I wwl_0_26:I wwl_0_27:I wwl_0_28:I wwl_0_29:I wwl_0_30:I wwl_0_31:I vdd:B gnd:B
* INOUT : read_bl_0_0 
* INOUT : read_bl_1_0 
* INOUT : read_bl_0_1 
* INOUT : read_bl_1_1 
* INOUT : read_bl_0_2 
* INOUT : read_bl_1_2 
* INOUT : read_bl_0_3 
* INOUT : read_bl_1_3 
* INOUT : read_bl_0_4 
* INOUT : read_bl_1_4 
* INOUT : read_bl_0_5 
* INOUT : read_bl_1_5 
* INOUT : read_bl_0_6 
* INOUT : read_bl_1_6 
* INOUT : read_bl_0_7 
* INOUT : read_bl_1_7 
* INOUT : read_bl_0_8 
* INOUT : read_bl_1_8 
* INOUT : read_bl_0_9 
* INOUT : read_bl_1_9 
* INOUT : read_bl_0_10 
* INOUT : read_bl_1_10 
* INOUT : read_bl_0_11 
* INOUT : read_bl_1_11 
* INOUT : read_bl_0_12 
* INOUT : read_bl_1_12 
* INOUT : read_bl_0_13 
* INOUT : read_bl_1_13 
* INOUT : read_bl_0_14 
* INOUT : read_bl_1_14 
* INOUT : read_bl_0_15 
* INOUT : read_bl_1_15 
* INOUT : read_bl_0_16 
* INOUT : read_bl_1_16 
* INOUT : read_bl_0_17 
* INOUT : read_bl_1_17 
* INOUT : read_bl_0_18 
* INOUT : read_bl_1_18 
* INOUT : read_bl_0_19 
* INOUT : read_bl_1_19 
* INOUT : read_bl_0_20 
* INOUT : read_bl_1_20 
* INOUT : read_bl_0_21 
* INOUT : read_bl_1_21 
* INOUT : read_bl_0_22 
* INOUT : read_bl_1_22 
* INOUT : read_bl_0_23 
* INOUT : read_bl_1_23 
* INOUT : read_bl_0_24 
* INOUT : read_bl_1_24 
* INOUT : read_bl_0_25 
* INOUT : read_bl_1_25 
* INOUT : read_bl_0_26 
* INOUT : read_bl_1_26 
* INOUT : read_bl_0_27 
* INOUT : read_bl_1_27 
* INOUT : read_bl_0_28 
* INOUT : read_bl_1_28 
* INOUT : read_bl_0_29 
* INOUT : read_bl_1_29 
* INOUT : read_bl_0_30 
* INOUT : read_bl_1_30 
* INOUT : read_bl_0_31 
* INOUT : read_bl_1_31 
* INPUT : write_bl_0_0 
* INPUT : write_bl_0_1 
* INPUT : write_bl_0_2 
* INPUT : write_bl_0_3 
* INPUT : write_bl_0_4 
* INPUT : write_bl_0_5 
* INPUT : write_bl_0_6 
* INPUT : write_bl_0_7 
* INPUT : write_bl_0_8 
* INPUT : write_bl_0_9 
* INPUT : write_bl_0_10 
* INPUT : write_bl_0_11 
* INPUT : write_bl_0_12 
* INPUT : write_bl_0_13 
* INPUT : write_bl_0_14 
* INPUT : write_bl_0_15 
* INPUT : write_bl_0_16 
* INPUT : write_bl_0_17 
* INPUT : write_bl_0_18 
* INPUT : write_bl_0_19 
* INPUT : write_bl_0_20 
* INPUT : write_bl_0_21 
* INPUT : write_bl_0_22 
* INPUT : write_bl_0_23 
* INPUT : write_bl_0_24 
* INPUT : write_bl_0_25 
* INPUT : write_bl_0_26 
* INPUT : write_bl_0_27 
* INPUT : write_bl_0_28 
* INPUT : write_bl_0_29 
* INPUT : write_bl_0_30 
* INPUT : write_bl_0_31 
* INPUT : rwl_0_0 
* INPUT : rwl_1_0 
* INPUT : rwl_0_1 
* INPUT : rwl_1_1 
* INPUT : rwl_0_2 
* INPUT : rwl_1_2 
* INPUT : rwl_0_3 
* INPUT : rwl_1_3 
* INPUT : rwl_0_4 
* INPUT : rwl_1_4 
* INPUT : rwl_0_5 
* INPUT : rwl_1_5 
* INPUT : rwl_0_6 
* INPUT : rwl_1_6 
* INPUT : rwl_0_7 
* INPUT : rwl_1_7 
* INPUT : rwl_0_8 
* INPUT : rwl_1_8 
* INPUT : rwl_0_9 
* INPUT : rwl_1_9 
* INPUT : rwl_0_10 
* INPUT : rwl_1_10 
* INPUT : rwl_0_11 
* INPUT : rwl_1_11 
* INPUT : rwl_0_12 
* INPUT : rwl_1_12 
* INPUT : rwl_0_13 
* INPUT : rwl_1_13 
* INPUT : rwl_0_14 
* INPUT : rwl_1_14 
* INPUT : rwl_0_15 
* INPUT : rwl_1_15 
* INPUT : rwl_0_16 
* INPUT : rwl_1_16 
* INPUT : rwl_0_17 
* INPUT : rwl_1_17 
* INPUT : rwl_0_18 
* INPUT : rwl_1_18 
* INPUT : rwl_0_19 
* INPUT : rwl_1_19 
* INPUT : rwl_0_20 
* INPUT : rwl_1_20 
* INPUT : rwl_0_21 
* INPUT : rwl_1_21 
* INPUT : rwl_0_22 
* INPUT : rwl_1_22 
* INPUT : rwl_0_23 
* INPUT : rwl_1_23 
* INPUT : rwl_0_24 
* INPUT : rwl_1_24 
* INPUT : rwl_0_25 
* INPUT : rwl_1_25 
* INPUT : rwl_0_26 
* INPUT : rwl_1_26 
* INPUT : rwl_0_27 
* INPUT : rwl_1_27 
* INPUT : rwl_0_28 
* INPUT : rwl_1_28 
* INPUT : rwl_0_29 
* INPUT : rwl_1_29 
* INPUT : rwl_0_30 
* INPUT : rwl_1_30 
* INPUT : rwl_0_31 
* INPUT : rwl_1_31 
* INPUT : wwl_0_0 
* INPUT : wwl_0_1 
* INPUT : wwl_0_2 
* INPUT : wwl_0_3 
* INPUT : wwl_0_4 
* INPUT : wwl_0_5 
* INPUT : wwl_0_6 
* INPUT : wwl_0_7 
* INPUT : wwl_0_8 
* INPUT : wwl_0_9 
* INPUT : wwl_0_10 
* INPUT : wwl_0_11 
* INPUT : wwl_0_12 
* INPUT : wwl_0_13 
* INPUT : wwl_0_14 
* INPUT : wwl_0_15 
* INPUT : wwl_0_16 
* INPUT : wwl_0_17 
* INPUT : wwl_0_18 
* INPUT : wwl_0_19 
* INPUT : wwl_0_20 
* INPUT : wwl_0_21 
* INPUT : wwl_0_22 
* INPUT : wwl_0_23 
* INPUT : wwl_0_24 
* INPUT : wwl_0_25 
* INPUT : wwl_0_26 
* INPUT : wwl_0_27 
* INPUT : wwl_0_28 
* INPUT : wwl_0_29 
* INPUT : wwl_0_30 
* INPUT : wwl_0_31 
* POWER : vdd 
* GROUND: gnd 
* rows: 32 cols: 32
Xbit_r0_c0 read_bl_0_0 rwl_0_0 read_bl_1_0 rwl_1_0 write_bl_0_0 wwl_0_0 vdd gnd cell_2r1w
Xbit_r1_c0 read_bl_0_0 rwl_0_1 read_bl_1_0 rwl_1_1 write_bl_0_0 wwl_0_1 vdd gnd cell_2r1w
Xbit_r2_c0 read_bl_0_0 rwl_0_2 read_bl_1_0 rwl_1_2 write_bl_0_0 wwl_0_2 vdd gnd cell_2r1w
Xbit_r3_c0 read_bl_0_0 rwl_0_3 read_bl_1_0 rwl_1_3 write_bl_0_0 wwl_0_3 vdd gnd cell_2r1w
Xbit_r4_c0 read_bl_0_0 rwl_0_4 read_bl_1_0 rwl_1_4 write_bl_0_0 wwl_0_4 vdd gnd cell_2r1w
Xbit_r5_c0 read_bl_0_0 rwl_0_5 read_bl_1_0 rwl_1_5 write_bl_0_0 wwl_0_5 vdd gnd cell_2r1w
Xbit_r6_c0 read_bl_0_0 rwl_0_6 read_bl_1_0 rwl_1_6 write_bl_0_0 wwl_0_6 vdd gnd cell_2r1w
Xbit_r7_c0 read_bl_0_0 rwl_0_7 read_bl_1_0 rwl_1_7 write_bl_0_0 wwl_0_7 vdd gnd cell_2r1w
Xbit_r8_c0 read_bl_0_0 rwl_0_8 read_bl_1_0 rwl_1_8 write_bl_0_0 wwl_0_8 vdd gnd cell_2r1w
Xbit_r9_c0 read_bl_0_0 rwl_0_9 read_bl_1_0 rwl_1_9 write_bl_0_0 wwl_0_9 vdd gnd cell_2r1w
Xbit_r10_c0 read_bl_0_0 rwl_0_10 read_bl_1_0 rwl_1_10 write_bl_0_0 wwl_0_10 vdd gnd cell_2r1w
Xbit_r11_c0 read_bl_0_0 rwl_0_11 read_bl_1_0 rwl_1_11 write_bl_0_0 wwl_0_11 vdd gnd cell_2r1w
Xbit_r12_c0 read_bl_0_0 rwl_0_12 read_bl_1_0 rwl_1_12 write_bl_0_0 wwl_0_12 vdd gnd cell_2r1w
Xbit_r13_c0 read_bl_0_0 rwl_0_13 read_bl_1_0 rwl_1_13 write_bl_0_0 wwl_0_13 vdd gnd cell_2r1w
Xbit_r14_c0 read_bl_0_0 rwl_0_14 read_bl_1_0 rwl_1_14 write_bl_0_0 wwl_0_14 vdd gnd cell_2r1w
Xbit_r15_c0 read_bl_0_0 rwl_0_15 read_bl_1_0 rwl_1_15 write_bl_0_0 wwl_0_15 vdd gnd cell_2r1w
Xbit_r16_c0 read_bl_0_0 rwl_0_16 read_bl_1_0 rwl_1_16 write_bl_0_0 wwl_0_16 vdd gnd cell_2r1w
Xbit_r17_c0 read_bl_0_0 rwl_0_17 read_bl_1_0 rwl_1_17 write_bl_0_0 wwl_0_17 vdd gnd cell_2r1w
Xbit_r18_c0 read_bl_0_0 rwl_0_18 read_bl_1_0 rwl_1_18 write_bl_0_0 wwl_0_18 vdd gnd cell_2r1w
Xbit_r19_c0 read_bl_0_0 rwl_0_19 read_bl_1_0 rwl_1_19 write_bl_0_0 wwl_0_19 vdd gnd cell_2r1w
Xbit_r20_c0 read_bl_0_0 rwl_0_20 read_bl_1_0 rwl_1_20 write_bl_0_0 wwl_0_20 vdd gnd cell_2r1w
Xbit_r21_c0 read_bl_0_0 rwl_0_21 read_bl_1_0 rwl_1_21 write_bl_0_0 wwl_0_21 vdd gnd cell_2r1w
Xbit_r22_c0 read_bl_0_0 rwl_0_22 read_bl_1_0 rwl_1_22 write_bl_0_0 wwl_0_22 vdd gnd cell_2r1w
Xbit_r23_c0 read_bl_0_0 rwl_0_23 read_bl_1_0 rwl_1_23 write_bl_0_0 wwl_0_23 vdd gnd cell_2r1w
Xbit_r24_c0 read_bl_0_0 rwl_0_24 read_bl_1_0 rwl_1_24 write_bl_0_0 wwl_0_24 vdd gnd cell_2r1w
Xbit_r25_c0 read_bl_0_0 rwl_0_25 read_bl_1_0 rwl_1_25 write_bl_0_0 wwl_0_25 vdd gnd cell_2r1w
Xbit_r26_c0 read_bl_0_0 rwl_0_26 read_bl_1_0 rwl_1_26 write_bl_0_0 wwl_0_26 vdd gnd cell_2r1w
Xbit_r27_c0 read_bl_0_0 rwl_0_27 read_bl_1_0 rwl_1_27 write_bl_0_0 wwl_0_27 vdd gnd cell_2r1w
Xbit_r28_c0 read_bl_0_0 rwl_0_28 read_bl_1_0 rwl_1_28 write_bl_0_0 wwl_0_28 vdd gnd cell_2r1w
Xbit_r29_c0 read_bl_0_0 rwl_0_29 read_bl_1_0 rwl_1_29 write_bl_0_0 wwl_0_29 vdd gnd cell_2r1w
Xbit_r30_c0 read_bl_0_0 rwl_0_30 read_bl_1_0 rwl_1_30 write_bl_0_0 wwl_0_30 vdd gnd cell_2r1w
Xbit_r31_c0 read_bl_0_0 rwl_0_31 read_bl_1_0 rwl_1_31 write_bl_0_0 wwl_0_31 vdd gnd cell_2r1w
Xbit_r0_c1 read_bl_0_1 rwl_0_0 read_bl_1_1 rwl_1_0 write_bl_0_1 wwl_0_0 vdd gnd cell_2r1w
Xbit_r1_c1 read_bl_0_1 rwl_0_1 read_bl_1_1 rwl_1_1 write_bl_0_1 wwl_0_1 vdd gnd cell_2r1w
Xbit_r2_c1 read_bl_0_1 rwl_0_2 read_bl_1_1 rwl_1_2 write_bl_0_1 wwl_0_2 vdd gnd cell_2r1w
Xbit_r3_c1 read_bl_0_1 rwl_0_3 read_bl_1_1 rwl_1_3 write_bl_0_1 wwl_0_3 vdd gnd cell_2r1w
Xbit_r4_c1 read_bl_0_1 rwl_0_4 read_bl_1_1 rwl_1_4 write_bl_0_1 wwl_0_4 vdd gnd cell_2r1w
Xbit_r5_c1 read_bl_0_1 rwl_0_5 read_bl_1_1 rwl_1_5 write_bl_0_1 wwl_0_5 vdd gnd cell_2r1w
Xbit_r6_c1 read_bl_0_1 rwl_0_6 read_bl_1_1 rwl_1_6 write_bl_0_1 wwl_0_6 vdd gnd cell_2r1w
Xbit_r7_c1 read_bl_0_1 rwl_0_7 read_bl_1_1 rwl_1_7 write_bl_0_1 wwl_0_7 vdd gnd cell_2r1w
Xbit_r8_c1 read_bl_0_1 rwl_0_8 read_bl_1_1 rwl_1_8 write_bl_0_1 wwl_0_8 vdd gnd cell_2r1w
Xbit_r9_c1 read_bl_0_1 rwl_0_9 read_bl_1_1 rwl_1_9 write_bl_0_1 wwl_0_9 vdd gnd cell_2r1w
Xbit_r10_c1 read_bl_0_1 rwl_0_10 read_bl_1_1 rwl_1_10 write_bl_0_1 wwl_0_10 vdd gnd cell_2r1w
Xbit_r11_c1 read_bl_0_1 rwl_0_11 read_bl_1_1 rwl_1_11 write_bl_0_1 wwl_0_11 vdd gnd cell_2r1w
Xbit_r12_c1 read_bl_0_1 rwl_0_12 read_bl_1_1 rwl_1_12 write_bl_0_1 wwl_0_12 vdd gnd cell_2r1w
Xbit_r13_c1 read_bl_0_1 rwl_0_13 read_bl_1_1 rwl_1_13 write_bl_0_1 wwl_0_13 vdd gnd cell_2r1w
Xbit_r14_c1 read_bl_0_1 rwl_0_14 read_bl_1_1 rwl_1_14 write_bl_0_1 wwl_0_14 vdd gnd cell_2r1w
Xbit_r15_c1 read_bl_0_1 rwl_0_15 read_bl_1_1 rwl_1_15 write_bl_0_1 wwl_0_15 vdd gnd cell_2r1w
Xbit_r16_c1 read_bl_0_1 rwl_0_16 read_bl_1_1 rwl_1_16 write_bl_0_1 wwl_0_16 vdd gnd cell_2r1w
Xbit_r17_c1 read_bl_0_1 rwl_0_17 read_bl_1_1 rwl_1_17 write_bl_0_1 wwl_0_17 vdd gnd cell_2r1w
Xbit_r18_c1 read_bl_0_1 rwl_0_18 read_bl_1_1 rwl_1_18 write_bl_0_1 wwl_0_18 vdd gnd cell_2r1w
Xbit_r19_c1 read_bl_0_1 rwl_0_19 read_bl_1_1 rwl_1_19 write_bl_0_1 wwl_0_19 vdd gnd cell_2r1w
Xbit_r20_c1 read_bl_0_1 rwl_0_20 read_bl_1_1 rwl_1_20 write_bl_0_1 wwl_0_20 vdd gnd cell_2r1w
Xbit_r21_c1 read_bl_0_1 rwl_0_21 read_bl_1_1 rwl_1_21 write_bl_0_1 wwl_0_21 vdd gnd cell_2r1w
Xbit_r22_c1 read_bl_0_1 rwl_0_22 read_bl_1_1 rwl_1_22 write_bl_0_1 wwl_0_22 vdd gnd cell_2r1w
Xbit_r23_c1 read_bl_0_1 rwl_0_23 read_bl_1_1 rwl_1_23 write_bl_0_1 wwl_0_23 vdd gnd cell_2r1w
Xbit_r24_c1 read_bl_0_1 rwl_0_24 read_bl_1_1 rwl_1_24 write_bl_0_1 wwl_0_24 vdd gnd cell_2r1w
Xbit_r25_c1 read_bl_0_1 rwl_0_25 read_bl_1_1 rwl_1_25 write_bl_0_1 wwl_0_25 vdd gnd cell_2r1w
Xbit_r26_c1 read_bl_0_1 rwl_0_26 read_bl_1_1 rwl_1_26 write_bl_0_1 wwl_0_26 vdd gnd cell_2r1w
Xbit_r27_c1 read_bl_0_1 rwl_0_27 read_bl_1_1 rwl_1_27 write_bl_0_1 wwl_0_27 vdd gnd cell_2r1w
Xbit_r28_c1 read_bl_0_1 rwl_0_28 read_bl_1_1 rwl_1_28 write_bl_0_1 wwl_0_28 vdd gnd cell_2r1w
Xbit_r29_c1 read_bl_0_1 rwl_0_29 read_bl_1_1 rwl_1_29 write_bl_0_1 wwl_0_29 vdd gnd cell_2r1w
Xbit_r30_c1 read_bl_0_1 rwl_0_30 read_bl_1_1 rwl_1_30 write_bl_0_1 wwl_0_30 vdd gnd cell_2r1w
Xbit_r31_c1 read_bl_0_1 rwl_0_31 read_bl_1_1 rwl_1_31 write_bl_0_1 wwl_0_31 vdd gnd cell_2r1w
Xbit_r0_c2 read_bl_0_2 rwl_0_0 read_bl_1_2 rwl_1_0 write_bl_0_2 wwl_0_0 vdd gnd cell_2r1w
Xbit_r1_c2 read_bl_0_2 rwl_0_1 read_bl_1_2 rwl_1_1 write_bl_0_2 wwl_0_1 vdd gnd cell_2r1w
Xbit_r2_c2 read_bl_0_2 rwl_0_2 read_bl_1_2 rwl_1_2 write_bl_0_2 wwl_0_2 vdd gnd cell_2r1w
Xbit_r3_c2 read_bl_0_2 rwl_0_3 read_bl_1_2 rwl_1_3 write_bl_0_2 wwl_0_3 vdd gnd cell_2r1w
Xbit_r4_c2 read_bl_0_2 rwl_0_4 read_bl_1_2 rwl_1_4 write_bl_0_2 wwl_0_4 vdd gnd cell_2r1w
Xbit_r5_c2 read_bl_0_2 rwl_0_5 read_bl_1_2 rwl_1_5 write_bl_0_2 wwl_0_5 vdd gnd cell_2r1w
Xbit_r6_c2 read_bl_0_2 rwl_0_6 read_bl_1_2 rwl_1_6 write_bl_0_2 wwl_0_6 vdd gnd cell_2r1w
Xbit_r7_c2 read_bl_0_2 rwl_0_7 read_bl_1_2 rwl_1_7 write_bl_0_2 wwl_0_7 vdd gnd cell_2r1w
Xbit_r8_c2 read_bl_0_2 rwl_0_8 read_bl_1_2 rwl_1_8 write_bl_0_2 wwl_0_8 vdd gnd cell_2r1w
Xbit_r9_c2 read_bl_0_2 rwl_0_9 read_bl_1_2 rwl_1_9 write_bl_0_2 wwl_0_9 vdd gnd cell_2r1w
Xbit_r10_c2 read_bl_0_2 rwl_0_10 read_bl_1_2 rwl_1_10 write_bl_0_2 wwl_0_10 vdd gnd cell_2r1w
Xbit_r11_c2 read_bl_0_2 rwl_0_11 read_bl_1_2 rwl_1_11 write_bl_0_2 wwl_0_11 vdd gnd cell_2r1w
Xbit_r12_c2 read_bl_0_2 rwl_0_12 read_bl_1_2 rwl_1_12 write_bl_0_2 wwl_0_12 vdd gnd cell_2r1w
Xbit_r13_c2 read_bl_0_2 rwl_0_13 read_bl_1_2 rwl_1_13 write_bl_0_2 wwl_0_13 vdd gnd cell_2r1w
Xbit_r14_c2 read_bl_0_2 rwl_0_14 read_bl_1_2 rwl_1_14 write_bl_0_2 wwl_0_14 vdd gnd cell_2r1w
Xbit_r15_c2 read_bl_0_2 rwl_0_15 read_bl_1_2 rwl_1_15 write_bl_0_2 wwl_0_15 vdd gnd cell_2r1w
Xbit_r16_c2 read_bl_0_2 rwl_0_16 read_bl_1_2 rwl_1_16 write_bl_0_2 wwl_0_16 vdd gnd cell_2r1w
Xbit_r17_c2 read_bl_0_2 rwl_0_17 read_bl_1_2 rwl_1_17 write_bl_0_2 wwl_0_17 vdd gnd cell_2r1w
Xbit_r18_c2 read_bl_0_2 rwl_0_18 read_bl_1_2 rwl_1_18 write_bl_0_2 wwl_0_18 vdd gnd cell_2r1w
Xbit_r19_c2 read_bl_0_2 rwl_0_19 read_bl_1_2 rwl_1_19 write_bl_0_2 wwl_0_19 vdd gnd cell_2r1w
Xbit_r20_c2 read_bl_0_2 rwl_0_20 read_bl_1_2 rwl_1_20 write_bl_0_2 wwl_0_20 vdd gnd cell_2r1w
Xbit_r21_c2 read_bl_0_2 rwl_0_21 read_bl_1_2 rwl_1_21 write_bl_0_2 wwl_0_21 vdd gnd cell_2r1w
Xbit_r22_c2 read_bl_0_2 rwl_0_22 read_bl_1_2 rwl_1_22 write_bl_0_2 wwl_0_22 vdd gnd cell_2r1w
Xbit_r23_c2 read_bl_0_2 rwl_0_23 read_bl_1_2 rwl_1_23 write_bl_0_2 wwl_0_23 vdd gnd cell_2r1w
Xbit_r24_c2 read_bl_0_2 rwl_0_24 read_bl_1_2 rwl_1_24 write_bl_0_2 wwl_0_24 vdd gnd cell_2r1w
Xbit_r25_c2 read_bl_0_2 rwl_0_25 read_bl_1_2 rwl_1_25 write_bl_0_2 wwl_0_25 vdd gnd cell_2r1w
Xbit_r26_c2 read_bl_0_2 rwl_0_26 read_bl_1_2 rwl_1_26 write_bl_0_2 wwl_0_26 vdd gnd cell_2r1w
Xbit_r27_c2 read_bl_0_2 rwl_0_27 read_bl_1_2 rwl_1_27 write_bl_0_2 wwl_0_27 vdd gnd cell_2r1w
Xbit_r28_c2 read_bl_0_2 rwl_0_28 read_bl_1_2 rwl_1_28 write_bl_0_2 wwl_0_28 vdd gnd cell_2r1w
Xbit_r29_c2 read_bl_0_2 rwl_0_29 read_bl_1_2 rwl_1_29 write_bl_0_2 wwl_0_29 vdd gnd cell_2r1w
Xbit_r30_c2 read_bl_0_2 rwl_0_30 read_bl_1_2 rwl_1_30 write_bl_0_2 wwl_0_30 vdd gnd cell_2r1w
Xbit_r31_c2 read_bl_0_2 rwl_0_31 read_bl_1_2 rwl_1_31 write_bl_0_2 wwl_0_31 vdd gnd cell_2r1w
Xbit_r0_c3 read_bl_0_3 rwl_0_0 read_bl_1_3 rwl_1_0 write_bl_0_3 wwl_0_0 vdd gnd cell_2r1w
Xbit_r1_c3 read_bl_0_3 rwl_0_1 read_bl_1_3 rwl_1_1 write_bl_0_3 wwl_0_1 vdd gnd cell_2r1w
Xbit_r2_c3 read_bl_0_3 rwl_0_2 read_bl_1_3 rwl_1_2 write_bl_0_3 wwl_0_2 vdd gnd cell_2r1w
Xbit_r3_c3 read_bl_0_3 rwl_0_3 read_bl_1_3 rwl_1_3 write_bl_0_3 wwl_0_3 vdd gnd cell_2r1w
Xbit_r4_c3 read_bl_0_3 rwl_0_4 read_bl_1_3 rwl_1_4 write_bl_0_3 wwl_0_4 vdd gnd cell_2r1w
Xbit_r5_c3 read_bl_0_3 rwl_0_5 read_bl_1_3 rwl_1_5 write_bl_0_3 wwl_0_5 vdd gnd cell_2r1w
Xbit_r6_c3 read_bl_0_3 rwl_0_6 read_bl_1_3 rwl_1_6 write_bl_0_3 wwl_0_6 vdd gnd cell_2r1w
Xbit_r7_c3 read_bl_0_3 rwl_0_7 read_bl_1_3 rwl_1_7 write_bl_0_3 wwl_0_7 vdd gnd cell_2r1w
Xbit_r8_c3 read_bl_0_3 rwl_0_8 read_bl_1_3 rwl_1_8 write_bl_0_3 wwl_0_8 vdd gnd cell_2r1w
Xbit_r9_c3 read_bl_0_3 rwl_0_9 read_bl_1_3 rwl_1_9 write_bl_0_3 wwl_0_9 vdd gnd cell_2r1w
Xbit_r10_c3 read_bl_0_3 rwl_0_10 read_bl_1_3 rwl_1_10 write_bl_0_3 wwl_0_10 vdd gnd cell_2r1w
Xbit_r11_c3 read_bl_0_3 rwl_0_11 read_bl_1_3 rwl_1_11 write_bl_0_3 wwl_0_11 vdd gnd cell_2r1w
Xbit_r12_c3 read_bl_0_3 rwl_0_12 read_bl_1_3 rwl_1_12 write_bl_0_3 wwl_0_12 vdd gnd cell_2r1w
Xbit_r13_c3 read_bl_0_3 rwl_0_13 read_bl_1_3 rwl_1_13 write_bl_0_3 wwl_0_13 vdd gnd cell_2r1w
Xbit_r14_c3 read_bl_0_3 rwl_0_14 read_bl_1_3 rwl_1_14 write_bl_0_3 wwl_0_14 vdd gnd cell_2r1w
Xbit_r15_c3 read_bl_0_3 rwl_0_15 read_bl_1_3 rwl_1_15 write_bl_0_3 wwl_0_15 vdd gnd cell_2r1w
Xbit_r16_c3 read_bl_0_3 rwl_0_16 read_bl_1_3 rwl_1_16 write_bl_0_3 wwl_0_16 vdd gnd cell_2r1w
Xbit_r17_c3 read_bl_0_3 rwl_0_17 read_bl_1_3 rwl_1_17 write_bl_0_3 wwl_0_17 vdd gnd cell_2r1w
Xbit_r18_c3 read_bl_0_3 rwl_0_18 read_bl_1_3 rwl_1_18 write_bl_0_3 wwl_0_18 vdd gnd cell_2r1w
Xbit_r19_c3 read_bl_0_3 rwl_0_19 read_bl_1_3 rwl_1_19 write_bl_0_3 wwl_0_19 vdd gnd cell_2r1w
Xbit_r20_c3 read_bl_0_3 rwl_0_20 read_bl_1_3 rwl_1_20 write_bl_0_3 wwl_0_20 vdd gnd cell_2r1w
Xbit_r21_c3 read_bl_0_3 rwl_0_21 read_bl_1_3 rwl_1_21 write_bl_0_3 wwl_0_21 vdd gnd cell_2r1w
Xbit_r22_c3 read_bl_0_3 rwl_0_22 read_bl_1_3 rwl_1_22 write_bl_0_3 wwl_0_22 vdd gnd cell_2r1w
Xbit_r23_c3 read_bl_0_3 rwl_0_23 read_bl_1_3 rwl_1_23 write_bl_0_3 wwl_0_23 vdd gnd cell_2r1w
Xbit_r24_c3 read_bl_0_3 rwl_0_24 read_bl_1_3 rwl_1_24 write_bl_0_3 wwl_0_24 vdd gnd cell_2r1w
Xbit_r25_c3 read_bl_0_3 rwl_0_25 read_bl_1_3 rwl_1_25 write_bl_0_3 wwl_0_25 vdd gnd cell_2r1w
Xbit_r26_c3 read_bl_0_3 rwl_0_26 read_bl_1_3 rwl_1_26 write_bl_0_3 wwl_0_26 vdd gnd cell_2r1w
Xbit_r27_c3 read_bl_0_3 rwl_0_27 read_bl_1_3 rwl_1_27 write_bl_0_3 wwl_0_27 vdd gnd cell_2r1w
Xbit_r28_c3 read_bl_0_3 rwl_0_28 read_bl_1_3 rwl_1_28 write_bl_0_3 wwl_0_28 vdd gnd cell_2r1w
Xbit_r29_c3 read_bl_0_3 rwl_0_29 read_bl_1_3 rwl_1_29 write_bl_0_3 wwl_0_29 vdd gnd cell_2r1w
Xbit_r30_c3 read_bl_0_3 rwl_0_30 read_bl_1_3 rwl_1_30 write_bl_0_3 wwl_0_30 vdd gnd cell_2r1w
Xbit_r31_c3 read_bl_0_3 rwl_0_31 read_bl_1_3 rwl_1_31 write_bl_0_3 wwl_0_31 vdd gnd cell_2r1w
Xbit_r0_c4 read_bl_0_4 rwl_0_0 read_bl_1_4 rwl_1_0 write_bl_0_4 wwl_0_0 vdd gnd cell_2r1w
Xbit_r1_c4 read_bl_0_4 rwl_0_1 read_bl_1_4 rwl_1_1 write_bl_0_4 wwl_0_1 vdd gnd cell_2r1w
Xbit_r2_c4 read_bl_0_4 rwl_0_2 read_bl_1_4 rwl_1_2 write_bl_0_4 wwl_0_2 vdd gnd cell_2r1w
Xbit_r3_c4 read_bl_0_4 rwl_0_3 read_bl_1_4 rwl_1_3 write_bl_0_4 wwl_0_3 vdd gnd cell_2r1w
Xbit_r4_c4 read_bl_0_4 rwl_0_4 read_bl_1_4 rwl_1_4 write_bl_0_4 wwl_0_4 vdd gnd cell_2r1w
Xbit_r5_c4 read_bl_0_4 rwl_0_5 read_bl_1_4 rwl_1_5 write_bl_0_4 wwl_0_5 vdd gnd cell_2r1w
Xbit_r6_c4 read_bl_0_4 rwl_0_6 read_bl_1_4 rwl_1_6 write_bl_0_4 wwl_0_6 vdd gnd cell_2r1w
Xbit_r7_c4 read_bl_0_4 rwl_0_7 read_bl_1_4 rwl_1_7 write_bl_0_4 wwl_0_7 vdd gnd cell_2r1w
Xbit_r8_c4 read_bl_0_4 rwl_0_8 read_bl_1_4 rwl_1_8 write_bl_0_4 wwl_0_8 vdd gnd cell_2r1w
Xbit_r9_c4 read_bl_0_4 rwl_0_9 read_bl_1_4 rwl_1_9 write_bl_0_4 wwl_0_9 vdd gnd cell_2r1w
Xbit_r10_c4 read_bl_0_4 rwl_0_10 read_bl_1_4 rwl_1_10 write_bl_0_4 wwl_0_10 vdd gnd cell_2r1w
Xbit_r11_c4 read_bl_0_4 rwl_0_11 read_bl_1_4 rwl_1_11 write_bl_0_4 wwl_0_11 vdd gnd cell_2r1w
Xbit_r12_c4 read_bl_0_4 rwl_0_12 read_bl_1_4 rwl_1_12 write_bl_0_4 wwl_0_12 vdd gnd cell_2r1w
Xbit_r13_c4 read_bl_0_4 rwl_0_13 read_bl_1_4 rwl_1_13 write_bl_0_4 wwl_0_13 vdd gnd cell_2r1w
Xbit_r14_c4 read_bl_0_4 rwl_0_14 read_bl_1_4 rwl_1_14 write_bl_0_4 wwl_0_14 vdd gnd cell_2r1w
Xbit_r15_c4 read_bl_0_4 rwl_0_15 read_bl_1_4 rwl_1_15 write_bl_0_4 wwl_0_15 vdd gnd cell_2r1w
Xbit_r16_c4 read_bl_0_4 rwl_0_16 read_bl_1_4 rwl_1_16 write_bl_0_4 wwl_0_16 vdd gnd cell_2r1w
Xbit_r17_c4 read_bl_0_4 rwl_0_17 read_bl_1_4 rwl_1_17 write_bl_0_4 wwl_0_17 vdd gnd cell_2r1w
Xbit_r18_c4 read_bl_0_4 rwl_0_18 read_bl_1_4 rwl_1_18 write_bl_0_4 wwl_0_18 vdd gnd cell_2r1w
Xbit_r19_c4 read_bl_0_4 rwl_0_19 read_bl_1_4 rwl_1_19 write_bl_0_4 wwl_0_19 vdd gnd cell_2r1w
Xbit_r20_c4 read_bl_0_4 rwl_0_20 read_bl_1_4 rwl_1_20 write_bl_0_4 wwl_0_20 vdd gnd cell_2r1w
Xbit_r21_c4 read_bl_0_4 rwl_0_21 read_bl_1_4 rwl_1_21 write_bl_0_4 wwl_0_21 vdd gnd cell_2r1w
Xbit_r22_c4 read_bl_0_4 rwl_0_22 read_bl_1_4 rwl_1_22 write_bl_0_4 wwl_0_22 vdd gnd cell_2r1w
Xbit_r23_c4 read_bl_0_4 rwl_0_23 read_bl_1_4 rwl_1_23 write_bl_0_4 wwl_0_23 vdd gnd cell_2r1w
Xbit_r24_c4 read_bl_0_4 rwl_0_24 read_bl_1_4 rwl_1_24 write_bl_0_4 wwl_0_24 vdd gnd cell_2r1w
Xbit_r25_c4 read_bl_0_4 rwl_0_25 read_bl_1_4 rwl_1_25 write_bl_0_4 wwl_0_25 vdd gnd cell_2r1w
Xbit_r26_c4 read_bl_0_4 rwl_0_26 read_bl_1_4 rwl_1_26 write_bl_0_4 wwl_0_26 vdd gnd cell_2r1w
Xbit_r27_c4 read_bl_0_4 rwl_0_27 read_bl_1_4 rwl_1_27 write_bl_0_4 wwl_0_27 vdd gnd cell_2r1w
Xbit_r28_c4 read_bl_0_4 rwl_0_28 read_bl_1_4 rwl_1_28 write_bl_0_4 wwl_0_28 vdd gnd cell_2r1w
Xbit_r29_c4 read_bl_0_4 rwl_0_29 read_bl_1_4 rwl_1_29 write_bl_0_4 wwl_0_29 vdd gnd cell_2r1w
Xbit_r30_c4 read_bl_0_4 rwl_0_30 read_bl_1_4 rwl_1_30 write_bl_0_4 wwl_0_30 vdd gnd cell_2r1w
Xbit_r31_c4 read_bl_0_4 rwl_0_31 read_bl_1_4 rwl_1_31 write_bl_0_4 wwl_0_31 vdd gnd cell_2r1w
Xbit_r0_c5 read_bl_0_5 rwl_0_0 read_bl_1_5 rwl_1_0 write_bl_0_5 wwl_0_0 vdd gnd cell_2r1w
Xbit_r1_c5 read_bl_0_5 rwl_0_1 read_bl_1_5 rwl_1_1 write_bl_0_5 wwl_0_1 vdd gnd cell_2r1w
Xbit_r2_c5 read_bl_0_5 rwl_0_2 read_bl_1_5 rwl_1_2 write_bl_0_5 wwl_0_2 vdd gnd cell_2r1w
Xbit_r3_c5 read_bl_0_5 rwl_0_3 read_bl_1_5 rwl_1_3 write_bl_0_5 wwl_0_3 vdd gnd cell_2r1w
Xbit_r4_c5 read_bl_0_5 rwl_0_4 read_bl_1_5 rwl_1_4 write_bl_0_5 wwl_0_4 vdd gnd cell_2r1w
Xbit_r5_c5 read_bl_0_5 rwl_0_5 read_bl_1_5 rwl_1_5 write_bl_0_5 wwl_0_5 vdd gnd cell_2r1w
Xbit_r6_c5 read_bl_0_5 rwl_0_6 read_bl_1_5 rwl_1_6 write_bl_0_5 wwl_0_6 vdd gnd cell_2r1w
Xbit_r7_c5 read_bl_0_5 rwl_0_7 read_bl_1_5 rwl_1_7 write_bl_0_5 wwl_0_7 vdd gnd cell_2r1w
Xbit_r8_c5 read_bl_0_5 rwl_0_8 read_bl_1_5 rwl_1_8 write_bl_0_5 wwl_0_8 vdd gnd cell_2r1w
Xbit_r9_c5 read_bl_0_5 rwl_0_9 read_bl_1_5 rwl_1_9 write_bl_0_5 wwl_0_9 vdd gnd cell_2r1w
Xbit_r10_c5 read_bl_0_5 rwl_0_10 read_bl_1_5 rwl_1_10 write_bl_0_5 wwl_0_10 vdd gnd cell_2r1w
Xbit_r11_c5 read_bl_0_5 rwl_0_11 read_bl_1_5 rwl_1_11 write_bl_0_5 wwl_0_11 vdd gnd cell_2r1w
Xbit_r12_c5 read_bl_0_5 rwl_0_12 read_bl_1_5 rwl_1_12 write_bl_0_5 wwl_0_12 vdd gnd cell_2r1w
Xbit_r13_c5 read_bl_0_5 rwl_0_13 read_bl_1_5 rwl_1_13 write_bl_0_5 wwl_0_13 vdd gnd cell_2r1w
Xbit_r14_c5 read_bl_0_5 rwl_0_14 read_bl_1_5 rwl_1_14 write_bl_0_5 wwl_0_14 vdd gnd cell_2r1w
Xbit_r15_c5 read_bl_0_5 rwl_0_15 read_bl_1_5 rwl_1_15 write_bl_0_5 wwl_0_15 vdd gnd cell_2r1w
Xbit_r16_c5 read_bl_0_5 rwl_0_16 read_bl_1_5 rwl_1_16 write_bl_0_5 wwl_0_16 vdd gnd cell_2r1w
Xbit_r17_c5 read_bl_0_5 rwl_0_17 read_bl_1_5 rwl_1_17 write_bl_0_5 wwl_0_17 vdd gnd cell_2r1w
Xbit_r18_c5 read_bl_0_5 rwl_0_18 read_bl_1_5 rwl_1_18 write_bl_0_5 wwl_0_18 vdd gnd cell_2r1w
Xbit_r19_c5 read_bl_0_5 rwl_0_19 read_bl_1_5 rwl_1_19 write_bl_0_5 wwl_0_19 vdd gnd cell_2r1w
Xbit_r20_c5 read_bl_0_5 rwl_0_20 read_bl_1_5 rwl_1_20 write_bl_0_5 wwl_0_20 vdd gnd cell_2r1w
Xbit_r21_c5 read_bl_0_5 rwl_0_21 read_bl_1_5 rwl_1_21 write_bl_0_5 wwl_0_21 vdd gnd cell_2r1w
Xbit_r22_c5 read_bl_0_5 rwl_0_22 read_bl_1_5 rwl_1_22 write_bl_0_5 wwl_0_22 vdd gnd cell_2r1w
Xbit_r23_c5 read_bl_0_5 rwl_0_23 read_bl_1_5 rwl_1_23 write_bl_0_5 wwl_0_23 vdd gnd cell_2r1w
Xbit_r24_c5 read_bl_0_5 rwl_0_24 read_bl_1_5 rwl_1_24 write_bl_0_5 wwl_0_24 vdd gnd cell_2r1w
Xbit_r25_c5 read_bl_0_5 rwl_0_25 read_bl_1_5 rwl_1_25 write_bl_0_5 wwl_0_25 vdd gnd cell_2r1w
Xbit_r26_c5 read_bl_0_5 rwl_0_26 read_bl_1_5 rwl_1_26 write_bl_0_5 wwl_0_26 vdd gnd cell_2r1w
Xbit_r27_c5 read_bl_0_5 rwl_0_27 read_bl_1_5 rwl_1_27 write_bl_0_5 wwl_0_27 vdd gnd cell_2r1w
Xbit_r28_c5 read_bl_0_5 rwl_0_28 read_bl_1_5 rwl_1_28 write_bl_0_5 wwl_0_28 vdd gnd cell_2r1w
Xbit_r29_c5 read_bl_0_5 rwl_0_29 read_bl_1_5 rwl_1_29 write_bl_0_5 wwl_0_29 vdd gnd cell_2r1w
Xbit_r30_c5 read_bl_0_5 rwl_0_30 read_bl_1_5 rwl_1_30 write_bl_0_5 wwl_0_30 vdd gnd cell_2r1w
Xbit_r31_c5 read_bl_0_5 rwl_0_31 read_bl_1_5 rwl_1_31 write_bl_0_5 wwl_0_31 vdd gnd cell_2r1w
Xbit_r0_c6 read_bl_0_6 rwl_0_0 read_bl_1_6 rwl_1_0 write_bl_0_6 wwl_0_0 vdd gnd cell_2r1w
Xbit_r1_c6 read_bl_0_6 rwl_0_1 read_bl_1_6 rwl_1_1 write_bl_0_6 wwl_0_1 vdd gnd cell_2r1w
Xbit_r2_c6 read_bl_0_6 rwl_0_2 read_bl_1_6 rwl_1_2 write_bl_0_6 wwl_0_2 vdd gnd cell_2r1w
Xbit_r3_c6 read_bl_0_6 rwl_0_3 read_bl_1_6 rwl_1_3 write_bl_0_6 wwl_0_3 vdd gnd cell_2r1w
Xbit_r4_c6 read_bl_0_6 rwl_0_4 read_bl_1_6 rwl_1_4 write_bl_0_6 wwl_0_4 vdd gnd cell_2r1w
Xbit_r5_c6 read_bl_0_6 rwl_0_5 read_bl_1_6 rwl_1_5 write_bl_0_6 wwl_0_5 vdd gnd cell_2r1w
Xbit_r6_c6 read_bl_0_6 rwl_0_6 read_bl_1_6 rwl_1_6 write_bl_0_6 wwl_0_6 vdd gnd cell_2r1w
Xbit_r7_c6 read_bl_0_6 rwl_0_7 read_bl_1_6 rwl_1_7 write_bl_0_6 wwl_0_7 vdd gnd cell_2r1w
Xbit_r8_c6 read_bl_0_6 rwl_0_8 read_bl_1_6 rwl_1_8 write_bl_0_6 wwl_0_8 vdd gnd cell_2r1w
Xbit_r9_c6 read_bl_0_6 rwl_0_9 read_bl_1_6 rwl_1_9 write_bl_0_6 wwl_0_9 vdd gnd cell_2r1w
Xbit_r10_c6 read_bl_0_6 rwl_0_10 read_bl_1_6 rwl_1_10 write_bl_0_6 wwl_0_10 vdd gnd cell_2r1w
Xbit_r11_c6 read_bl_0_6 rwl_0_11 read_bl_1_6 rwl_1_11 write_bl_0_6 wwl_0_11 vdd gnd cell_2r1w
Xbit_r12_c6 read_bl_0_6 rwl_0_12 read_bl_1_6 rwl_1_12 write_bl_0_6 wwl_0_12 vdd gnd cell_2r1w
Xbit_r13_c6 read_bl_0_6 rwl_0_13 read_bl_1_6 rwl_1_13 write_bl_0_6 wwl_0_13 vdd gnd cell_2r1w
Xbit_r14_c6 read_bl_0_6 rwl_0_14 read_bl_1_6 rwl_1_14 write_bl_0_6 wwl_0_14 vdd gnd cell_2r1w
Xbit_r15_c6 read_bl_0_6 rwl_0_15 read_bl_1_6 rwl_1_15 write_bl_0_6 wwl_0_15 vdd gnd cell_2r1w
Xbit_r16_c6 read_bl_0_6 rwl_0_16 read_bl_1_6 rwl_1_16 write_bl_0_6 wwl_0_16 vdd gnd cell_2r1w
Xbit_r17_c6 read_bl_0_6 rwl_0_17 read_bl_1_6 rwl_1_17 write_bl_0_6 wwl_0_17 vdd gnd cell_2r1w
Xbit_r18_c6 read_bl_0_6 rwl_0_18 read_bl_1_6 rwl_1_18 write_bl_0_6 wwl_0_18 vdd gnd cell_2r1w
Xbit_r19_c6 read_bl_0_6 rwl_0_19 read_bl_1_6 rwl_1_19 write_bl_0_6 wwl_0_19 vdd gnd cell_2r1w
Xbit_r20_c6 read_bl_0_6 rwl_0_20 read_bl_1_6 rwl_1_20 write_bl_0_6 wwl_0_20 vdd gnd cell_2r1w
Xbit_r21_c6 read_bl_0_6 rwl_0_21 read_bl_1_6 rwl_1_21 write_bl_0_6 wwl_0_21 vdd gnd cell_2r1w
Xbit_r22_c6 read_bl_0_6 rwl_0_22 read_bl_1_6 rwl_1_22 write_bl_0_6 wwl_0_22 vdd gnd cell_2r1w
Xbit_r23_c6 read_bl_0_6 rwl_0_23 read_bl_1_6 rwl_1_23 write_bl_0_6 wwl_0_23 vdd gnd cell_2r1w