* NGSPICE file created from sram_0rw2r1w_16_32_sky130A.ext - technology: sky130A

.subckt dff clk vdd gnd D Q
X0 net3 net2 vdd vdd sky130_fd_pr__pfet_01v8 ad=0p pd=0u as=0p ps=0u w=1.35e+06u l=150000u
X1 gnd net7 a_922_96# gnd sky130_fd_pr__nfet_01v8 ad=0p pd=0u as=0p ps=0u w=420000u l=150000u
X2 vdd clk clkb vdd sky130_fd_pr__pfet_01v8 ad=0p pd=0u as=0p ps=0u w=1.35e+06u l=150000u
X3 net3 net2 gnd gnd sky130_fd_pr__nfet_01v8 ad=0p pd=0u as=0p ps=0u w=420000u l=150000u
X4 vdd net3 net4 vdd sky130_fd_pr__pfet_01v8 ad=0p pd=0u as=0p ps=0u w=1.35e+06u l=150000u
X5 gnd net3 a_474_96# gnd sky130_fd_pr__nfet_01v8 ad=0p pd=0u as=0p ps=0u w=420000u l=150000u
X6 gnd clk clkb gnd sky130_fd_pr__nfet_01v8 ad=0p pd=0u as=0p ps=0u w=420000u l=150000u
X7 a_922_96# clkb net6 gnd sky130_fd_pr__nfet_01v8 ad=0p pd=0u as=0p ps=0u w=420000u l=150000u
X8 a_474_96# clk net2 gnd sky130_fd_pr__nfet_01v8 ad=0p pd=0u as=0p ps=0u w=420000u l=150000u
X9 net4 clkb net2 vdd sky130_fd_pr__pfet_01v8 ad=0p pd=0u as=0p ps=0u w=1.35e+06u l=150000u
X10 net6 clk net3 gnd sky130_fd_pr__nfet_01v8 ad=0p pd=0u as=0p ps=0u w=420000u l=150000u
X11 net2 clkb net1 gnd sky130_fd_pr__nfet_01v8 ad=0p pd=0u as=0p ps=0u w=420000u l=150000u
X12 net7 net6 vdd vdd sky130_fd_pr__pfet_01v8 ad=0p pd=0u as=0p ps=0u w=1.35e+06u l=150000u
X13 net8 clk net6 vdd sky130_fd_pr__pfet_01v8 ad=0p pd=0u as=0p ps=0u w=1.35e+06u l=150000u
X14 net2 clk net1 vdd sky130_fd_pr__pfet_01v8 ad=0p pd=0u as=0p ps=0u w=1.35e+06u l=150000u
X15 net1 D gnd gnd sky130_fd_pr__nfet_01v8 ad=0p pd=0u as=0p ps=0u w=420000u l=150000u
X16 vdd net7 net8 vdd sky130_fd_pr__pfet_01v8 ad=0p pd=0u as=0p ps=0u w=1.35e+06u l=150000u
X17 net1 D vdd vdd sky130_fd_pr__pfet_01v8 ad=0p pd=0u as=0p ps=0u w=1.35e+06u l=150000u
X18 net6 clkb net3 vdd sky130_fd_pr__pfet_01v8 ad=0p pd=0u as=0p ps=0u w=1.35e+06u l=150000u
X19 Q net7 vdd vdd sky130_fd_pr__pfet_01v8 ad=0p pd=0u as=0p ps=0u w=1.35e+06u l=150000u
X20 net7 net6 gnd gnd sky130_fd_pr__nfet_01v8 ad=0p pd=0u as=0p ps=0u w=420000u l=150000u
X21 Q net7 gnd gnd sky130_fd_pr__nfet_01v8 ad=0p pd=0u as=0p ps=0u w=420000u l=150000u
.ends

.subckt nmos_m2_w0_420_sli_dli_da_p S S_uq0 gnd D G
X0 D G S gnd sky130_fd_pr__nfet_01v8 ad=0p pd=0u as=0p ps=0u w=420000u l=150000u
X1 S_uq0 G D gnd sky130_fd_pr__nfet_01v8 ad=0p pd=0u as=0p ps=0u w=420000u l=150000u
.ends

.subckt pmos_m2_w1_260_sli_dli_da_p w_n59_42# S S_uq0 gnd D G
X0 S_uq0 G D w_n59_42# sky130_fd_pr__pfet_01v8 ad=0p pd=0u as=0p ps=0u w=1.26e+06u l=150000u
X1 D G S w_n59_42# sky130_fd_pr__pfet_01v8 ad=0p pd=0u as=0p ps=0u w=1.26e+06u l=150000u
.ends

.subckt pinv_1 Z gnd vdd A
Xnmos_m2_w0_420_sli_dli_da_p_0 gnd gnd gnd Z A nmos_m2_w0_420_sli_dli_da_p
Xpmos_m2_w1_260_sli_dli_da_p_0 vdd vdd vdd gnd Z A pmos_m2_w1_260_sli_dli_da_p
.ends

.subckt nmos_m4_w0_420_sli_dli_da_p S S_uq0 S_uq1 gnd D G
X0 D G S_uq1 gnd sky130_fd_pr__nfet_01v8 ad=0p pd=0u as=0p ps=0u w=420000u l=150000u
X1 D G S gnd sky130_fd_pr__nfet_01v8 ad=0p pd=0u as=0p ps=0u w=420000u l=150000u
X2 S G D gnd sky130_fd_pr__nfet_01v8 ad=0p pd=0u as=0p ps=0u w=420000u l=150000u
X3 S_uq0 G D gnd sky130_fd_pr__nfet_01v8 ad=0p pd=0u as=0p ps=0u w=420000u l=150000u
.ends

.subckt pmos_m4_w1_260_sli_dli_da_p w_n59_42# S S_uq0 S_uq1 gnd D G
X0 D G S w_n59_42# sky130_fd_pr__pfet_01v8 ad=0p pd=0u as=0p ps=0u w=1.26e+06u l=150000u
X1 S G D w_n59_42# sky130_fd_pr__pfet_01v8 ad=0p pd=0u as=0p ps=0u w=1.26e+06u l=150000u
X2 S_uq0 G D w_n59_42# sky130_fd_pr__pfet_01v8 ad=0p pd=0u as=0p ps=0u w=1.26e+06u l=150000u
X3 D G S_uq1 w_n59_42# sky130_fd_pr__pfet_01v8 ad=0p pd=0u as=0p ps=0u w=1.26e+06u l=150000u
.ends

.subckt pinv_2 vdd Z gnd A
Xnmos_m4_w0_420_sli_dli_da_p_0 gnd gnd gnd gnd Z A nmos_m4_w0_420_sli_dli_da_p
Xpmos_m4_w1_260_sli_dli_da_p_0 vdd vdd vdd vdd gnd Z A pmos_m4_w1_260_sli_dli_da_p
.ends

.subckt dff_buf_0 pinv_2_0/vdd clk gnd Q Qb vdd D
Xdff_0 clk vdd gnd D dff_0/Q dff
Xpinv_1_0 Qb gnd pinv_2_0/vdd dff_0/Q pinv_1
Xpinv_2_0 pinv_2_0/vdd Q gnd Qb pinv_2
.ends

.subckt dff_buf_array dff_buf_0_1/pinv_2_0/vdd vdd dout_0 dout_1 dout_bar_0 dout_bar_1
+ din_0 din_1
Xdff_buf_0_1 dff_buf_0_1/pinv_2_0/vdd vdd vdd dout_0 dout_bar_0 vdd din_0 dff_buf_0
Xdff_buf_0_0 dff_buf_0_1/pinv_2_0/vdd vdd vdd dout_1 dout_bar_1 vdd din_1 dff_buf_0
.ends

.subckt nmos_m10_w0_460_sli_dli_da_p S S_uq0 S_uq1 S_uq3 S_uq2 S_uq4 gnd D G
X0 S_uq1 G D gnd sky130_fd_pr__nfet_01v8 ad=0p pd=0u as=0p ps=0u w=460000u l=150000u
X1 D G S_uq4 gnd sky130_fd_pr__nfet_01v8 ad=0p pd=0u as=0p ps=0u w=460000u l=150000u
X2 D G S_uq3 gnd sky130_fd_pr__nfet_01v8 ad=0p pd=0u as=0p ps=0u w=460000u l=150000u
X3 D G S gnd sky130_fd_pr__nfet_01v8 ad=0p pd=0u as=0p ps=0u w=460000u l=150000u
X4 S_uq3 G D gnd sky130_fd_pr__nfet_01v8 ad=0p pd=0u as=0p ps=0u w=460000u l=150000u
X5 S G D gnd sky130_fd_pr__nfet_01v8 ad=0p pd=0u as=0p ps=0u w=460000u l=150000u
X6 S_uq0 G D gnd sky130_fd_pr__nfet_01v8 ad=0p pd=0u as=0p ps=0u w=460000u l=150000u
X7 D G S_uq2 gnd sky130_fd_pr__nfet_01v8 ad=0p pd=0u as=0p ps=0u w=460000u l=150000u
X8 D G S_uq1 gnd sky130_fd_pr__nfet_01v8 ad=0p pd=0u as=0p ps=0u w=460000u l=150000u
X9 S_uq2 G D gnd sky130_fd_pr__nfet_01v8 ad=0p pd=0u as=0p ps=0u w=460000u l=150000u
.ends

.subckt pmos_m10_w1_385_sli_dli_da_p S S_uq0 S_uq1 S_uq3 S_uq2 S_uq4 gnd w_n59_55#
+ D G
X0 D G S_uq3 w_n59_55# sky130_fd_pr__pfet_01v8 ad=0p pd=0u as=0p ps=0u w=1.385e+06u l=150000u
X1 D G S w_n59_55# sky130_fd_pr__pfet_01v8 ad=0p pd=0u as=0p ps=0u w=1.385e+06u l=150000u
X2 S_uq3 G D w_n59_55# sky130_fd_pr__pfet_01v8 ad=0p pd=0u as=0p ps=0u w=1.385e+06u l=150000u
X3 S G D w_n59_55# sky130_fd_pr__pfet_01v8 ad=0p pd=0u as=0p ps=0u w=1.385e+06u l=150000u
X4 S_uq0 G D w_n59_55# sky130_fd_pr__pfet_01v8 ad=0p pd=0u as=0p ps=0u w=1.385e+06u l=150000u
X5 D G S_uq2 w_n59_55# sky130_fd_pr__pfet_01v8 ad=0p pd=0u as=0p ps=0u w=1.385e+06u l=150000u
X6 D G S_uq1 w_n59_55# sky130_fd_pr__pfet_01v8 ad=0p pd=0u as=0p ps=0u w=1.385e+06u l=150000u
X7 S_uq2 G D w_n59_55# sky130_fd_pr__pfet_01v8 ad=0p pd=0u as=0p ps=0u w=1.385e+06u l=150000u
X8 S_uq1 G D w_n59_55# sky130_fd_pr__pfet_01v8 ad=0p pd=0u as=0p ps=0u w=1.385e+06u l=150000u
X9 D G S_uq4 w_n59_55# sky130_fd_pr__pfet_01v8 ad=0p pd=0u as=0p ps=0u w=1.385e+06u l=150000u
.ends

.subckt pinv_13 gnd vdd Z A
Xnmos_m10_w0_460_sli_dli_da_p_0 gnd gnd gnd gnd gnd gnd gnd Z A nmos_m10_w0_460_sli_dli_da_p
Xpmos_m10_w1_385_sli_dli_da_p_0 vdd vdd vdd vdd vdd vdd gnd vdd Z A pmos_m10_w1_385_sli_dli_da_p
.ends

.subckt nmos_m1_w0_420_sli_dli_da_p S gnd D G
X0 D G S gnd sky130_fd_pr__nfet_01v8 ad=0p pd=0u as=0p ps=0u w=420000u l=150000u
.ends

.subckt pmos_m1_w1_260_sli_dli_da_p w_n59_42# S gnd D G
X0 D G S w_n59_42# sky130_fd_pr__pfet_01v8 ad=0p pd=0u as=0p ps=0u w=1.26e+06u l=150000u
.ends

.subckt pinv_6 A Z gnd vdd
Xnmos_m1_w0_420_sli_dli_da_p_0 gnd gnd Z A nmos_m1_w0_420_sli_dli_da_p
Xpmos_m1_w1_260_sli_dli_da_p_0 vdd vdd gnd Z A pmos_m1_w1_260_sli_dli_da_p
.ends

.subckt pinv_12 Z gnd vdd A
Xnmos_m4_w0_420_sli_dli_da_p_0 gnd gnd gnd gnd Z A nmos_m4_w0_420_sli_dli_da_p
Xpmos_m4_w1_260_sli_dli_da_p_0 vdd vdd vdd vdd gnd Z A pmos_m4_w1_260_sli_dli_da_p
.ends

.subckt pdriver_3 vdd Z gnd A
Xpinv_13_0 gnd vdd Z pinv_13_0/A pinv_13
Xpinv_6_0 pinv_6_1/Z pinv_6_0/Z gnd vdd pinv_6
Xpinv_6_1 A pinv_6_1/Z gnd vdd pinv_6
Xpinv_12_0 pinv_13_0/A gnd vdd pinv_6_0/Z pinv_12
.ends

.subckt pmos_m1_w1_260_sli_dli w_n59_42# S gnd D G
X0 D G S w_n59_42# sky130_fd_pr__pfet_01v8 ad=0p pd=0u as=0p ps=0u w=1.26e+06u l=150000u
.ends

.subckt nmos_m1_w0_840_sli_dactive S gnd G a_90_0#
X0 a_90_0# G S gnd sky130_fd_pr__nfet_01v8 ad=0p pd=0u as=0p ps=0u w=840000u l=150000u
.ends

.subckt nmos_m1_w0_840_sactive_dli a_0_0# gnd D G
X0 D G a_0_0# gnd sky130_fd_pr__nfet_01v8 ad=0p pd=0u as=0p ps=0u w=840000u l=150000u
.ends

.subckt pnand2_0 w_n36_402# Z gnd A
Xpmos_m1_w1_260_sli_dli_0 w_n36_402# Z gnd Z Z pmos_m1_w1_260_sli_dli
Xpmos_m1_w1_260_sli_dli_1 w_n36_402# Z gnd Z A pmos_m1_w1_260_sli_dli
Xnmos_m1_w0_840_sli_dactive_0 gnd gnd A nmos_m1_w0_840_sactive_dli_0/a_0_0# nmos_m1_w0_840_sli_dactive
Xnmos_m1_w0_840_sactive_dli_0 nmos_m1_w0_840_sactive_dli_0/a_0_0# gnd Z Z nmos_m1_w0_840_sactive_dli
.ends

.subckt pmos_m21_w1_440_sli_dli_da_p w_n59_60# S S_uq0 S_uq1 S_uq3 S_uq2 S_uq4 S_uq5
+ S_uq6 S_uq7 S_uq8 S_uq9 gnd D G
X0 D G S_uq8 w_n59_60# sky130_fd_pr__pfet_01v8 ad=0p pd=0u as=0p ps=0u w=1.44e+06u l=150000u
X1 S_uq1 G D w_n59_60# sky130_fd_pr__pfet_01v8 ad=0p pd=0u as=0p ps=0u w=1.44e+06u l=150000u
X2 D G S_uq5 w_n59_60# sky130_fd_pr__pfet_01v8 ad=0p pd=0u as=0p ps=0u w=1.44e+06u l=150000u
X3 S_uq8 G D w_n59_60# sky130_fd_pr__pfet_01v8 ad=0p pd=0u as=0p ps=0u w=1.44e+06u l=150000u
X4 D G S_uq4 w_n59_60# sky130_fd_pr__pfet_01v8 ad=0p pd=0u as=0p ps=0u w=1.44e+06u l=150000u
X5 D G S_uq2 w_n59_60# sky130_fd_pr__pfet_01v8 ad=0p pd=0u as=0p ps=0u w=1.44e+06u l=150000u
X6 D G S_uq0 w_n59_60# sky130_fd_pr__pfet_01v8 ad=0p pd=0u as=0p ps=0u w=1.44e+06u l=150000u
X7 S_uq5 G D w_n59_60# sky130_fd_pr__pfet_01v8 ad=0p pd=0u as=0p ps=0u w=1.44e+06u l=150000u
X8 S_uq2 G D w_n59_60# sky130_fd_pr__pfet_01v8 ad=0p pd=0u as=0p ps=0u w=1.44e+06u l=150000u
X9 S G D w_n59_60# sky130_fd_pr__pfet_01v8 ad=0p pd=0u as=0p ps=0u w=1.44e+06u l=150000u
X10 S_uq4 G D w_n59_60# sky130_fd_pr__pfet_01v8 ad=0p pd=0u as=0p ps=0u w=1.44e+06u l=150000u
X11 S_uq0 G D w_n59_60# sky130_fd_pr__pfet_01v8 ad=0p pd=0u as=0p ps=0u w=1.44e+06u l=150000u
X12 D G S_uq7 w_n59_60# sky130_fd_pr__pfet_01v8 ad=0p pd=0u as=0p ps=0u w=1.44e+06u l=150000u
X13 D G S_uq6 w_n59_60# sky130_fd_pr__pfet_01v8 ad=0p pd=0u as=0p ps=0u w=1.44e+06u l=150000u
X14 D G S_uq3 w_n59_60# sky130_fd_pr__pfet_01v8 ad=0p pd=0u as=0p ps=0u w=1.44e+06u l=150000u
X15 D G S_uq1 w_n59_60# sky130_fd_pr__pfet_01v8 ad=0p pd=0u as=0p ps=0u w=1.44e+06u l=150000u
X16 D G S w_n59_60# sky130_fd_pr__pfet_01v8 ad=0p pd=0u as=0p ps=0u w=1.44e+06u l=150000u
X17 S_uq7 G D w_n59_60# sky130_fd_pr__pfet_01v8 ad=0p pd=0u as=0p ps=0u w=1.44e+06u l=150000u
X18 S_uq6 G D w_n59_60# sky130_fd_pr__pfet_01v8 ad=0p pd=0u as=0p ps=0u w=1.44e+06u l=150000u
X19 D G S_uq9 w_n59_60# sky130_fd_pr__pfet_01v8 ad=0p pd=0u as=0p ps=0u w=1.44e+06u l=150000u
X20 S_uq3 G D w_n59_60# sky130_fd_pr__pfet_01v8 ad=0p pd=0u as=0p ps=0u w=1.44e+06u l=150000u
.ends

.subckt nmos_m21_w0_480_sli_dli_da_p S S_uq0 S_uq1 S_uq3 S_uq2 S_uq4 S_uq5 S_uq6 S_uq7
+ S_uq8 S_uq9 gnd D G
X0 S_uq6 G D gnd sky130_fd_pr__nfet_01v8 ad=0p pd=0u as=0p ps=0u w=480000u l=150000u
X1 D G S_uq9 gnd sky130_fd_pr__nfet_01v8 ad=0p pd=0u as=0p ps=0u w=480000u l=150000u
X2 S_uq3 G D gnd sky130_fd_pr__nfet_01v8 ad=0p pd=0u as=0p ps=0u w=480000u l=150000u
X3 S_uq1 G D gnd sky130_fd_pr__nfet_01v8 ad=0p pd=0u as=0p ps=0u w=480000u l=150000u
X4 D G S_uq8 gnd sky130_fd_pr__nfet_01v8 ad=0p pd=0u as=0p ps=0u w=480000u l=150000u
X5 D G S_uq5 gnd sky130_fd_pr__nfet_01v8 ad=0p pd=0u as=0p ps=0u w=480000u l=150000u
X6 S_uq8 G D gnd sky130_fd_pr__nfet_01v8 ad=0p pd=0u as=0p ps=0u w=480000u l=150000u
X7 D G S_uq4 gnd sky130_fd_pr__nfet_01v8 ad=0p pd=0u as=0p ps=0u w=480000u l=150000u
X8 D G S_uq2 gnd sky130_fd_pr__nfet_01v8 ad=0p pd=0u as=0p ps=0u w=480000u l=150000u
X9 D G S_uq0 gnd sky130_fd_pr__nfet_01v8 ad=0p pd=0u as=0p ps=0u w=480000u l=150000u
X10 S_uq5 G D gnd sky130_fd_pr__nfet_01v8 ad=0p pd=0u as=0p ps=0u w=480000u l=150000u
X11 S G D gnd sky130_fd_pr__nfet_01v8 ad=0p pd=0u as=0p ps=0u w=480000u l=150000u
X12 S_uq4 G D gnd sky130_fd_pr__nfet_01v8 ad=0p pd=0u as=0p ps=0u w=480000u l=150000u
X13 S_uq2 G D gnd sky130_fd_pr__nfet_01v8 ad=0p pd=0u as=0p ps=0u w=480000u l=150000u
X14 S_uq0 G D gnd sky130_fd_pr__nfet_01v8 ad=0p pd=0u as=0p ps=0u w=480000u l=150000u
X15 D G S_uq7 gnd sky130_fd_pr__nfet_01v8 ad=0p pd=0u as=0p ps=0u w=480000u l=150000u
X16 D G S_uq6 gnd sky130_fd_pr__nfet_01v8 ad=0p pd=0u as=0p ps=0u w=480000u l=150000u
X17 D G S_uq3 gnd sky130_fd_pr__nfet_01v8 ad=0p pd=0u as=0p ps=0u w=480000u l=150000u
X18 D G S_uq1 gnd sky130_fd_pr__nfet_01v8 ad=0p pd=0u as=0p ps=0u w=480000u l=150000u
X19 D G S gnd sky130_fd_pr__nfet_01v8 ad=0p pd=0u as=0p ps=0u w=480000u l=150000u
X20 S_uq7 G D gnd sky130_fd_pr__nfet_01v8 ad=0p pd=0u as=0p ps=0u w=480000u l=150000u
.ends

.subckt pinv_11 gnd Z vdd A
Xpmos_m21_w1_440_sli_dli_da_p_0 vdd vdd vdd vdd vdd vdd vdd vdd vdd vdd vdd vdd gnd
+ Z A pmos_m21_w1_440_sli_dli_da_p
Xnmos_m21_w0_480_sli_dli_da_p_0 gnd gnd gnd gnd gnd gnd gnd gnd gnd gnd gnd gnd Z
+ A nmos_m21_w0_480_sli_dli_da_p
.ends

.subckt pdriver_2 gnd vdd Z A
Xpinv_11_0 gnd Z vdd A pinv_11
.ends

.subckt pand2_0 B gnd Z A
Xpnand2_0_0 B B gnd A pnand2_0
Xpdriver_2_0 gnd B Z B pdriver_2
.ends

.subckt pinv_7 Z gnd vdd A
Xnmos_m2_w0_420_sli_dli_da_p_0 gnd gnd gnd Z A nmos_m2_w0_420_sli_dli_da_p
Xpmos_m2_w1_260_sli_dli_da_p_0 vdd vdd vdd gnd Z A pmos_m2_w1_260_sli_dli_da_p
.ends

.subckt nmos_m5_w0_420_sli_dli_da_p S S_uq0 S_uq1 gnd D G
X0 D G S_uq1 gnd sky130_fd_pr__nfet_01v8 ad=0p pd=0u as=0p ps=0u w=420000u l=150000u
X1 D G S gnd sky130_fd_pr__nfet_01v8 ad=0p pd=0u as=0p ps=0u w=420000u l=150000u
X2 S G D gnd sky130_fd_pr__nfet_01v8 ad=0p pd=0u as=0p ps=0u w=420000u l=150000u
X3 D G S_uq0 gnd sky130_fd_pr__nfet_01v8 ad=0p pd=0u as=0p ps=0u w=420000u l=150000u
X4 S_uq0 G D gnd sky130_fd_pr__nfet_01v8 ad=0p pd=0u as=0p ps=0u w=420000u l=150000u
.ends

.subckt pmos_m5_w1_260_sli_dli_da_p w_n59_42# S S_uq0 S_uq1 gnd D G
X0 D G S w_n59_42# sky130_fd_pr__pfet_01v8 ad=0p pd=0u as=0p ps=0u w=1.26e+06u l=150000u
X1 S G D w_n59_42# sky130_fd_pr__pfet_01v8 ad=0p pd=0u as=0p ps=0u w=1.26e+06u l=150000u
X2 D G S_uq0 w_n59_42# sky130_fd_pr__pfet_01v8 ad=0p pd=0u as=0p ps=0u w=1.26e+06u l=150000u
X3 S_uq0 G D w_n59_42# sky130_fd_pr__pfet_01v8 ad=0p pd=0u as=0p ps=0u w=1.26e+06u l=150000u
X4 D G S_uq1 w_n59_42# sky130_fd_pr__pfet_01v8 ad=0p pd=0u as=0p ps=0u w=1.26e+06u l=150000u
.ends

.subckt pinv_8 Z gnd vdd A
Xnmos_m5_w0_420_sli_dli_da_p_0 gnd gnd gnd gnd Z A nmos_m5_w0_420_sli_dli_da_p
Xpmos_m5_w1_260_sli_dli_da_p_0 vdd vdd vdd vdd gnd Z A pmos_m5_w1_260_sli_dli_da_p
.ends

.subckt pdriver_1 Z gnd vdd A
Xpinv_7_0 pinv_8_0/A gnd vdd pinv_7_0/A pinv_7
Xpinv_8_0 Z gnd vdd pinv_8_0/A pinv_8
Xpinv_6_0 pinv_6_1/Z pinv_7_0/A gnd vdd pinv_6
Xpinv_6_1 A pinv_6_1/Z gnd vdd pinv_6
.ends

.subckt pmos_m11_w1_375_sli_dli_da_p S S_uq0 S_uq1 S_uq3 S_uq2 S_uq4 gnd w_n59_53#
+ D G
X0 D G S_uq3 w_n59_53# sky130_fd_pr__pfet_01v8 ad=0p pd=0u as=0p ps=0u w=1.375e+06u l=150000u
X1 D G S w_n59_53# sky130_fd_pr__pfet_01v8 ad=0p pd=0u as=0p ps=0u w=1.375e+06u l=150000u
X2 S_uq3 G D w_n59_53# sky130_fd_pr__pfet_01v8 ad=0p pd=0u as=0p ps=0u w=1.375e+06u l=150000u
X3 D G S_uq0 w_n59_53# sky130_fd_pr__pfet_01v8 ad=0p pd=0u as=0p ps=0u w=1.375e+06u l=150000u
X4 S G D w_n59_53# sky130_fd_pr__pfet_01v8 ad=0p pd=0u as=0p ps=0u w=1.375e+06u l=150000u
X5 S_uq0 G D w_n59_53# sky130_fd_pr__pfet_01v8 ad=0p pd=0u as=0p ps=0u w=1.375e+06u l=150000u
X6 D G S_uq2 w_n59_53# sky130_fd_pr__pfet_01v8 ad=0p pd=0u as=0p ps=0u w=1.375e+06u l=150000u
X7 D G S_uq1 w_n59_53# sky130_fd_pr__pfet_01v8 ad=0p pd=0u as=0p ps=0u w=1.375e+06u l=150000u
X8 S_uq2 G D w_n59_53# sky130_fd_pr__pfet_01v8 ad=0p pd=0u as=0p ps=0u w=1.375e+06u l=150000u
X9 S_uq1 G D w_n59_53# sky130_fd_pr__pfet_01v8 ad=0p pd=0u as=0p ps=0u w=1.375e+06u l=150000u
X10 D G S_uq4 w_n59_53# sky130_fd_pr__pfet_01v8 ad=0p pd=0u as=0p ps=0u w=1.375e+06u l=150000u
.ends

.subckt nmos_m11_w0_460_sli_dli_da_p S S_uq0 S_uq1 S_uq3 S_uq2 S_uq4 gnd D G
X0 S_uq1 G D gnd sky130_fd_pr__nfet_01v8 ad=0p pd=0u as=0p ps=0u w=460000u l=150000u
X1 D G S_uq4 gnd sky130_fd_pr__nfet_01v8 ad=0p pd=0u as=0p ps=0u w=460000u l=150000u
X2 D G S_uq3 gnd sky130_fd_pr__nfet_01v8 ad=0p pd=0u as=0p ps=0u w=460000u l=150000u
X3 D G S gnd sky130_fd_pr__nfet_01v8 ad=0p pd=0u as=0p ps=0u w=460000u l=150000u
X4 S_uq3 G D gnd sky130_fd_pr__nfet_01v8 ad=0p pd=0u as=0p ps=0u w=460000u l=150000u
X5 D G S_uq0 gnd sky130_fd_pr__nfet_01v8 ad=0p pd=0u as=0p ps=0u w=460000u l=150000u
X6 S G D gnd sky130_fd_pr__nfet_01v8 ad=0p pd=0u as=0p ps=0u w=460000u l=150000u
X7 S_uq0 G D gnd sky130_fd_pr__nfet_01v8 ad=0p pd=0u as=0p ps=0u w=460000u l=150000u
X8 D G S_uq2 gnd sky130_fd_pr__nfet_01v8 ad=0p pd=0u as=0p ps=0u w=460000u l=150000u
X9 D G S_uq1 gnd sky130_fd_pr__nfet_01v8 ad=0p pd=0u as=0p ps=0u w=460000u l=150000u
X10 S_uq2 G D gnd sky130_fd_pr__nfet_01v8 ad=0p pd=0u as=0p ps=0u w=460000u l=150000u
.ends

.subckt pinv_3 vdd Z gnd A
Xpmos_m11_w1_375_sli_dli_da_p_0 vdd vdd vdd vdd vdd vdd gnd vdd Z A pmos_m11_w1_375_sli_dli_da_p
Xnmos_m11_w0_460_sli_dli_da_p_0 gnd gnd gnd gnd gnd gnd gnd Z A nmos_m11_w0_460_sli_dli_da_p
.ends

.subckt pdriver gnd vdd Z A
Xpinv_3_0 vdd Z gnd A pinv_3
.ends

.subckt pand2 B gnd Z A
Xpnand2_0_0 B B gnd A pnand2_0
Xpdriver_0 gnd B Z B pdriver
.ends

.subckt pnand2_1 Z gnd A
Xpmos_m1_w1_260_sli_dli_0 Z Z gnd Z Z pmos_m1_w1_260_sli_dli
Xpmos_m1_w1_260_sli_dli_1 Z Z gnd Z A pmos_m1_w1_260_sli_dli
Xnmos_m1_w0_840_sli_dactive_0 gnd gnd A nmos_m1_w0_840_sactive_dli_0/a_0_0# nmos_m1_w0_840_sli_dactive
Xnmos_m1_w0_840_sactive_dli_0 nmos_m1_w0_840_sactive_dli_0/a_0_0# gnd Z Z nmos_m1_w0_840_sactive_dli
.ends

.subckt pmos_m12_w1_470_sli_dli_da_p w_n59_63# S S_uq0 S_uq1 S_uq3 S_uq2 S_uq4 S_uq5
+ gnd D G
X0 D G S_uq4 w_n59_63# sky130_fd_pr__pfet_01v8 ad=0p pd=0u as=0p ps=0u w=1.47e+06u l=150000u
X1 D G S_uq1 w_n59_63# sky130_fd_pr__pfet_01v8 ad=0p pd=0u as=0p ps=0u w=1.47e+06u l=150000u
X2 S_uq4 G D w_n59_63# sky130_fd_pr__pfet_01v8 ad=0p pd=0u as=0p ps=0u w=1.47e+06u l=150000u
X3 D G S w_n59_63# sky130_fd_pr__pfet_01v8 ad=0p pd=0u as=0p ps=0u w=1.47e+06u l=150000u
X4 S_uq1 G D w_n59_63# sky130_fd_pr__pfet_01v8 ad=0p pd=0u as=0p ps=0u w=1.47e+06u l=150000u
X5 S G D w_n59_63# sky130_fd_pr__pfet_01v8 ad=0p pd=0u as=0p ps=0u w=1.47e+06u l=150000u
X6 D G S_uq3 w_n59_63# sky130_fd_pr__pfet_01v8 ad=0p pd=0u as=0p ps=0u w=1.47e+06u l=150000u
X7 D G S_uq2 w_n59_63# sky130_fd_pr__pfet_01v8 ad=0p pd=0u as=0p ps=0u w=1.47e+06u l=150000u
X8 S_uq3 G D w_n59_63# sky130_fd_pr__pfet_01v8 ad=0p pd=0u as=0p ps=0u w=1.47e+06u l=150000u
X9 S_uq2 G D w_n59_63# sky130_fd_pr__pfet_01v8 ad=0p pd=0u as=0p ps=0u w=1.47e+06u l=150000u
X10 D G S_uq5 w_n59_63# sky130_fd_pr__pfet_01v8 ad=0p pd=0u as=0p ps=0u w=1.47e+06u l=150000u
X11 S_uq0 G D w_n59_63# sky130_fd_pr__pfet_01v8 ad=0p pd=0u as=0p ps=0u w=1.47e+06u l=150000u
.ends

.subckt nmos_m12_w0_490_sli_dli_da_p S S_uq0 S_uq1 S_uq3 S_uq2 S_uq4 S_uq5 gnd D G
X0 S_uq2 G D gnd sky130_fd_pr__nfet_01v8 ad=0p pd=0u as=0p ps=0u w=490000u l=150000u
X1 D G S_uq5 gnd sky130_fd_pr__nfet_01v8 ad=0p pd=0u as=0p ps=0u w=490000u l=150000u
X2 S_uq0 G D gnd sky130_fd_pr__nfet_01v8 ad=0p pd=0u as=0p ps=0u w=490000u l=150000u
X3 D G S_uq4 gnd sky130_fd_pr__nfet_01v8 ad=0p pd=0u as=0p ps=0u w=490000u l=150000u
X4 D G S_uq1 gnd sky130_fd_pr__nfet_01v8 ad=0p pd=0u as=0p ps=0u w=490000u l=150000u
X5 S_uq4 G D gnd sky130_fd_pr__nfet_01v8 ad=0p pd=0u as=0p ps=0u w=490000u l=150000u
X6 D G S gnd sky130_fd_pr__nfet_01v8 ad=0p pd=0u as=0p ps=0u w=490000u l=150000u
X7 S_uq1 G D gnd sky130_fd_pr__nfet_01v8 ad=0p pd=0u as=0p ps=0u w=490000u l=150000u
X8 S G D gnd sky130_fd_pr__nfet_01v8 ad=0p pd=0u as=0p ps=0u w=490000u l=150000u
X9 D G S_uq3 gnd sky130_fd_pr__nfet_01v8 ad=0p pd=0u as=0p ps=0u w=490000u l=150000u
X10 D G S_uq2 gnd sky130_fd_pr__nfet_01v8 ad=0p pd=0u as=0p ps=0u w=490000u l=150000u
X11 S_uq3 G D gnd sky130_fd_pr__nfet_01v8 ad=0p pd=0u as=0p ps=0u w=490000u l=150000u
.ends

.subckt pinv_9 Z vdd gnd A
Xpmos_m12_w1_470_sli_dli_da_p_0 vdd vdd vdd vdd vdd vdd vdd vdd gnd Z A pmos_m12_w1_470_sli_dli_da_p
Xnmos_m12_w0_490_sli_dli_da_p_0 gnd gnd gnd gnd gnd gnd gnd gnd Z A nmos_m12_w0_490_sli_dli_da_p
.ends

.subckt pmos_m36_w1_470_sli_dli_da_p w_n59_63# S S_uq0 S_uq1 S_uq3 S_uq2 S_uq4 S_uq10
+ S_uq5 S_uq11 S_uq6 S_uq13 S_uq12 S_uq7 S_uq14 S_uq8 S_uq15 S_uq9 S_uq16 S_uq17 gnd
+ D G
X0 D G S_uq16 w_n59_63# sky130_fd_pr__pfet_01v8 ad=0p pd=0u as=0p ps=0u w=1.47e+06u l=150000u
X1 S_uq9 G D w_n59_63# sky130_fd_pr__pfet_01v8 ad=0p pd=0u as=0p ps=0u w=1.47e+06u l=150000u
X2 S_uq4 G D w_n59_63# sky130_fd_pr__pfet_01v8 ad=0p pd=0u as=0p ps=0u w=1.47e+06u l=150000u
X3 S_uq0 G D w_n59_63# sky130_fd_pr__pfet_01v8 ad=0p pd=0u as=0p ps=0u w=1.47e+06u l=150000u
X4 D G S_uq13 w_n59_63# sky130_fd_pr__pfet_01v8 ad=0p pd=0u as=0p ps=0u w=1.47e+06u l=150000u
X5 D G S_uq3 w_n59_63# sky130_fd_pr__pfet_01v8 ad=0p pd=0u as=0p ps=0u w=1.47e+06u l=150000u
X6 D G S w_n59_63# sky130_fd_pr__pfet_01v8 ad=0p pd=0u as=0p ps=0u w=1.47e+06u l=150000u
X7 S_uq16 G D w_n59_63# sky130_fd_pr__pfet_01v8 ad=0p pd=0u as=0p ps=0u w=1.47e+06u l=150000u
X8 D G S_uq12 w_n59_63# sky130_fd_pr__pfet_01v8 ad=0p pd=0u as=0p ps=0u w=1.47e+06u l=150000u
X9 D G S_uq10 w_n59_63# sky130_fd_pr__pfet_01v8 ad=0p pd=0u as=0p ps=0u w=1.47e+06u l=150000u
X10 D G S_uq7 w_n59_63# sky130_fd_pr__pfet_01v8 ad=0p pd=0u as=0p ps=0u w=1.47e+06u l=150000u
X11 D G S_uq5 w_n59_63# sky130_fd_pr__pfet_01v8 ad=0p pd=0u as=0p ps=0u w=1.47e+06u l=150000u
X12 D G S_uq2 w_n59_63# sky130_fd_pr__pfet_01v8 ad=0p pd=0u as=0p ps=0u w=1.47e+06u l=150000u
X13 S_uq13 G D w_n59_63# sky130_fd_pr__pfet_01v8 ad=0p pd=0u as=0p ps=0u w=1.47e+06u l=150000u
X14 S_uq10 G D w_n59_63# sky130_fd_pr__pfet_01v8 ad=0p pd=0u as=0p ps=0u w=1.47e+06u l=150000u
X15 S_uq8 G D w_n59_63# sky130_fd_pr__pfet_01v8 ad=0p pd=0u as=0p ps=0u w=1.47e+06u l=150000u
X16 S_uq5 G D w_n59_63# sky130_fd_pr__pfet_01v8 ad=0p pd=0u as=0p ps=0u w=1.47e+06u l=150000u
X17 S_uq3 G D w_n59_63# sky130_fd_pr__pfet_01v8 ad=0p pd=0u as=0p ps=0u w=1.47e+06u l=150000u
X18 S G D w_n59_63# sky130_fd_pr__pfet_01v8 ad=0p pd=0u as=0p ps=0u w=1.47e+06u l=150000u
X19 S_uq12 G D w_n59_63# sky130_fd_pr__pfet_01v8 ad=0p pd=0u as=0p ps=0u w=1.47e+06u l=150000u
X20 S_uq7 G D w_n59_63# sky130_fd_pr__pfet_01v8 ad=0p pd=0u as=0p ps=0u w=1.47e+06u l=150000u
X21 D G S_uq15 w_n59_63# sky130_fd_pr__pfet_01v8 ad=0p pd=0u as=0p ps=0u w=1.47e+06u l=150000u
X22 D G S_uq14 w_n59_63# sky130_fd_pr__pfet_01v8 ad=0p pd=0u as=0p ps=0u w=1.47e+06u l=150000u
X23 D G S_uq11 w_n59_63# sky130_fd_pr__pfet_01v8 ad=0p pd=0u as=0p ps=0u w=1.47e+06u l=150000u
X24 D G S_uq9 w_n59_63# sky130_fd_pr__pfet_01v8 ad=0p pd=0u as=0p ps=0u w=1.47e+06u l=150000u
X25 D G S_uq8 w_n59_63# sky130_fd_pr__pfet_01v8 ad=0p pd=0u as=0p ps=0u w=1.47e+06u l=150000u
X26 D G S_uq6 w_n59_63# sky130_fd_pr__pfet_01v8 ad=0p pd=0u as=0p ps=0u w=1.47e+06u l=150000u
X27 D G S_uq4 w_n59_63# sky130_fd_pr__pfet_01v8 ad=0p pd=0u as=0p ps=0u w=1.47e+06u l=150000u
X28 D G S_uq1 w_n59_63# sky130_fd_pr__pfet_01v8 ad=0p pd=0u as=0p ps=0u w=1.47e+06u l=150000u
X29 S_uq15 G D w_n59_63# sky130_fd_pr__pfet_01v8 ad=0p pd=0u as=0p ps=0u w=1.47e+06u l=150000u
X30 S_uq14 G D w_n59_63# sky130_fd_pr__pfet_01v8 ad=0p pd=0u as=0p ps=0u w=1.47e+06u l=150000u
X31 S_uq2 G D w_n59_63# sky130_fd_pr__pfet_01v8 ad=0p pd=0u as=0p ps=0u w=1.47e+06u l=150000u
X32 S_uq1 G D w_n59_63# sky130_fd_pr__pfet_01v8 ad=0p pd=0u as=0p ps=0u w=1.47e+06u l=150000u
X33 D G S_uq17 w_n59_63# sky130_fd_pr__pfet_01v8 ad=0p pd=0u as=0p ps=0u w=1.47e+06u l=150000u
X34 S_uq11 G D w_n59_63# sky130_fd_pr__pfet_01v8 ad=0p pd=0u as=0p ps=0u w=1.47e+06u l=150000u
X35 S_uq6 G D w_n59_63# sky130_fd_pr__pfet_01v8 ad=0p pd=0u as=0p ps=0u w=1.47e+06u l=150000u
.ends

.subckt nmos_m36_w0_490_sli_dli_da_p S S_uq0 S_uq1 S_uq3 S_uq2 S_uq4 S_uq10 S_uq5
+ S_uq11 S_uq6 S_uq13 S_uq12 S_uq7 S_uq14 S_uq8 S_uq15 S_uq9 S_uq16 S_uq17 gnd D G
X0 S_uq14 G D gnd sky130_fd_pr__nfet_01v8 ad=0p pd=0u as=0p ps=0u w=490000u l=150000u
X1 S_uq2 G D gnd sky130_fd_pr__nfet_01v8 ad=0p pd=0u as=0p ps=0u w=490000u l=150000u
X2 D G S_uq17 gnd sky130_fd_pr__nfet_01v8 ad=0p pd=0u as=0p ps=0u w=490000u l=150000u
X3 S_uq11 G D gnd sky130_fd_pr__nfet_01v8 ad=0p pd=0u as=0p ps=0u w=490000u l=150000u
X4 S_uq6 G D gnd sky130_fd_pr__nfet_01v8 ad=0p pd=0u as=0p ps=0u w=490000u l=150000u
X5 S_uq1 G D gnd sky130_fd_pr__nfet_01v8 ad=0p pd=0u as=0p ps=0u w=490000u l=150000u
X6 S_uq9 G D gnd sky130_fd_pr__nfet_01v8 ad=0p pd=0u as=0p ps=0u w=490000u l=150000u
X7 S_uq4 G D gnd sky130_fd_pr__nfet_01v8 ad=0p pd=0u as=0p ps=0u w=490000u l=150000u
X8 S_uq0 G D gnd sky130_fd_pr__nfet_01v8 ad=0p pd=0u as=0p ps=0u w=490000u l=150000u
X9 D G S_uq16 gnd sky130_fd_pr__nfet_01v8 ad=0p pd=0u as=0p ps=0u w=490000u l=150000u
X10 D G S_uq13 gnd sky130_fd_pr__nfet_01v8 ad=0p pd=0u as=0p ps=0u w=490000u l=150000u
X11 D G S_uq3 gnd sky130_fd_pr__nfet_01v8 ad=0p pd=0u as=0p ps=0u w=490000u l=150000u
X12 S_uq16 G D gnd sky130_fd_pr__nfet_01v8 ad=0p pd=0u as=0p ps=0u w=490000u l=150000u
X13 D G S_uq12 gnd sky130_fd_pr__nfet_01v8 ad=0p pd=0u as=0p ps=0u w=490000u l=150000u
X14 D G S_uq10 gnd sky130_fd_pr__nfet_01v8 ad=0p pd=0u as=0p ps=0u w=490000u l=150000u
X15 D G S_uq7 gnd sky130_fd_pr__nfet_01v8 ad=0p pd=0u as=0p ps=0u w=490000u l=150000u
X16 D G S_uq5 gnd sky130_fd_pr__nfet_01v8 ad=0p pd=0u as=0p ps=0u w=490000u l=150000u
X17 D G S_uq2 gnd sky130_fd_pr__nfet_01v8 ad=0p pd=0u as=0p ps=0u w=490000u l=150000u
X18 D G S gnd sky130_fd_pr__nfet_01v8 ad=0p pd=0u as=0p ps=0u w=490000u l=150000u
X19 S_uq13 G D gnd sky130_fd_pr__nfet_01v8 ad=0p pd=0u as=0p ps=0u w=490000u l=150000u
X20 S_uq8 G D gnd sky130_fd_pr__nfet_01v8 ad=0p pd=0u as=0p ps=0u w=490000u l=150000u
X21 S_uq5 G D gnd sky130_fd_pr__nfet_01v8 ad=0p pd=0u as=0p ps=0u w=490000u l=150000u
X22 S_uq3 G D gnd sky130_fd_pr__nfet_01v8 ad=0p pd=0u as=0p ps=0u w=490000u l=150000u
X23 S G D gnd sky130_fd_pr__nfet_01v8 ad=0p pd=0u as=0p ps=0u w=490000u l=150000u
X24 S_uq12 G D gnd sky130_fd_pr__nfet_01v8 ad=0p pd=0u as=0p ps=0u w=490000u l=150000u
X25 S_uq10 G D gnd sky130_fd_pr__nfet_01v8 ad=0p pd=0u as=0p ps=0u w=490000u l=150000u
X26 S_uq7 G D gnd sky130_fd_pr__nfet_01v8 ad=0p pd=0u as=0p ps=0u w=490000u l=150000u
X27 D G S_uq15 gnd sky130_fd_pr__nfet_01v8 ad=0p pd=0u as=0p ps=0u w=490000u l=150000u
X28 D G S_uq14 gnd sky130_fd_pr__nfet_01v8 ad=0p pd=0u as=0p ps=0u w=490000u l=150000u
X29 D G S_uq11 gnd sky130_fd_pr__nfet_01v8 ad=0p pd=0u as=0p ps=0u w=490000u l=150000u
X30 D G S_uq9 gnd sky130_fd_pr__nfet_01v8 ad=0p pd=0u as=0p ps=0u w=490000u l=150000u
X31 D G S_uq8 gnd sky130_fd_pr__nfet_01v8 ad=0p pd=0u as=0p ps=0u w=490000u l=150000u
X32 D G S_uq6 gnd sky130_fd_pr__nfet_01v8 ad=0p pd=0u as=0p ps=0u w=490000u l=150000u
X33 D G S_uq4 gnd sky130_fd_pr__nfet_01v8 ad=0p pd=0u as=0p ps=0u w=490000u l=150000u
X34 D G S_uq1 gnd sky130_fd_pr__nfet_01v8 ad=0p pd=0u as=0p ps=0u w=490000u l=150000u
X35 S_uq15 G D gnd sky130_fd_pr__nfet_01v8 ad=0p pd=0u as=0p ps=0u w=490000u l=150000u
.ends

.subckt pinv_10 vdd gnd Z A
Xpmos_m36_w1_470_sli_dli_da_p_0 vdd vdd vdd vdd vdd vdd vdd vdd vdd vdd vdd vdd vdd
+ vdd vdd vdd vdd vdd vdd vdd gnd Z A pmos_m36_w1_470_sli_dli_da_p
Xnmos_m36_w0_490_sli_dli_da_p_0 gnd gnd gnd gnd gnd gnd gnd gnd gnd gnd gnd gnd gnd
+ gnd gnd gnd gnd gnd gnd gnd Z A nmos_m36_w0_490_sli_dli_da_p
.ends

.subckt pdriver_0 vdd Z gnd A
Xpinv_9_0 pinv_9_0/Z vdd gnd pinv_9_0/A pinv_9
Xpinv_7_0 pinv_8_0/A gnd vdd pinv_7_0/A pinv_7
Xpinv_8_0 pinv_9_0/A gnd vdd pinv_8_0/A pinv_8
Xpinv_6_0 pinv_6_1/Z pinv_7_0/A gnd vdd pinv_6
Xpinv_6_1 A pinv_6_1/Z gnd vdd pinv_6
Xpinv_10_0 vdd gnd Z pinv_9_0/Z pinv_10
.ends

.subckt pinv_0 Z gnd vdd A
Xnmos_m1_w0_420_sli_dli_da_p_0 gnd gnd Z A nmos_m1_w0_420_sli_dli_da_p
Xpmos_m1_w1_260_sli_dli_da_p_0 vdd vdd gnd Z A pmos_m1_w1_260_sli_dli_da_p
.ends

.subckt control_logic_multiport vdd dff_buf_array_0/dff_buf_0_1/pinv_2_0/vdd pand2_1/Z
+ p_en_bar clk pnand2_1_0/Z web csb wl_en w_en
Xdff_buf_array_0 dff_buf_array_0/dff_buf_0_1/pinv_2_0/vdd vdd dff_buf_array_0/dout_0
+ dff_buf_array_0/dout_1 pand2_0_0/A pand2_1/Z web csb dff_buf_array
Xpdriver_3_0 pnand2_1_0/Z p_en_bar vdd pnand2_1_0/Z pdriver_3
Xpand2_0_0 pand2_1/Z vdd w_en pand2_0_0/A pand2_0
Xpdriver_1_0 wl_en vdd pnand2_1_0/Z pand2_1/Z pdriver_1
Xpand2_0 pand2_1/Z vdd pand2_0/Z vdd pand2
Xpand2_1 pand2_1/Z vdd pand2_1/Z pand2_1/A pand2
Xpnand2_1_0 pnand2_1_0/Z vdd pand2_0/Z pnand2_1
Xpdriver_0_0 pand2_1/Z vdd vdd clk pdriver_0
Xpinv_0_0 pand2_1/A vdd pand2_1/Z vdd pinv_0
.ends

.subckt data_dff din_7 clk din_8 vdd gnd din_9 din_10 din_11 din_12 din_13 din_14
+ din_15 din_0 din_1 din_2 din_3 din_4 din_5 din_6
Xdff_0 clk vdd gnd din_15 dout_15 dff
Xdff_1 clk vdd gnd din_14 dout_14 dff
Xdff_2 clk vdd gnd din_13 dout_13 dff
Xdff_3 clk vdd gnd din_12 dout_12 dff
Xdff_4 clk vdd gnd din_11 dout_11 dff
Xdff_5 clk vdd gnd din_10 dout_10 dff
Xdff_6 clk vdd gnd din_9 dout_9 dff
Xdff_7 clk vdd gnd din_8 dout_8 dff
Xdff_8 clk vdd gnd din_7 dout_7 dff
Xdff_9 clk vdd gnd din_6 dout_6 dff
Xdff_10 clk vdd gnd din_5 dout_5 dff
Xdff_11 clk vdd gnd din_4 dout_4 dff
Xdff_12 clk vdd gnd din_3 dout_3 dff
Xdff_13 clk vdd gnd din_2 dout_2 dff
Xdff_14 clk vdd gnd din_1 dout_1 dff
Xdff_15 clk vdd gnd din_0 dout_0 dff
.ends

.subckt col_addr_dff clk gnd vdd din_0
Xdff_0 clk vdd gnd din_0 dout_0 dff
.ends

.subckt row_addr_dff vdd_uq0 vdd_uq1 din_1 vdd_uq2 clk vdd dout_0 dout_1 dout_3 dout_2
+ gnd dout_4 dout_5 din_0 din_2 din_3 din_4 din_5
Xdff_0 clk vdd_uq2 gnd din_7 dout_7 dff
Xdff_1 clk vdd_uq2 gnd din_6 dout_6 dff
Xdff_2 clk vdd_uq1 gnd din_5 dout_5 dff
Xdff_3 clk vdd_uq1 gnd din_4 dout_4 dff
Xdff_4 clk vdd gnd din_3 dout_3 dff
Xdff_5 clk vdd gnd din_2 dout_2 dff
Xdff_6 clk vdd_uq0 gnd din_1 dout_1 dff
Xdff_7 clk vdd_uq0 gnd din_0 dout_0 dff
.ends

.subckt sense_amp_multiport vdd gnd rbl dout
X0 dout rbl gnd gnd sky130_fd_pr__nfet_01v8 ad=0p pd=0u as=0p ps=0u w=420000u l=150000u
X1 dout rbl vdd vdd sky130_fd_pr__pfet_01v8 ad=0p pd=0u as=0p ps=0u w=2.7e+06u l=150000u
.ends

.subckt sense_amp_array gnd vdd_uq0 vdd_uq6 vdd_uq1 vdd_uq2 vdd_uq3 data_10 vdd_uq4
+ data_11 vdd_uq5 data_12 data_13 data_14 vdd_uq7 vdd_uq8 data_15 vdd_uq9 vdd_uq30
+ vdd_uq20 data_0 vdd_uq21 vdd_uq10 data_1 vdd_uq22 vdd_uq11 data_2 vdd_uq23 vdd_uq12
+ data_3 vdd_uq24 vdd_uq13 vdd data_4 vdd_uq25 vdd_uq14 data_5 vdd_uq15 vdd_uq26 data_6
+ vdd_uq16 vdd_uq27 data_7 vdd_uq28 vdd_uq17 data_8 vdd_uq29 vdd_uq18 data_9 vdd_uq19
Xsense_amp_multiport_30 vdd_uq29 gnd rbl_1 data_1 sense_amp_multiport
Xsense_amp_multiport_0 vdd_uq0 gnd rbl_31 data_31 sense_amp_multiport