**************************************************
* OpenRAM generated memory.
* Words: 32
* Data bits: 16
* Banks: 1
* Column mux: 2:1
* Trimmed: False
* LVS: False
**************************************************
* SPICE3 file created from cell_fast.ext - technology: sky130A

.subckt cell_2r1w rbl0 rbl1 wbl0 rwl0 rwl1 wwl0 vdd gnd
X0 rbl1 rwl1 net3 gnd sky130_fd_pr__nfet_01v8 w=0.84 l=0.15
X1 net2 q gnd gnd sky130_fd_pr__nfet_01v8 w=0.84 l=0.15
X2 q q_bar vdd vdd sky130_fd_pr__pfet_01v8 w=0.84 l=0.15
X3 q_bar q gnd gnd sky130_fd_pr__nfet_01v8 w=0.42 l=0.15
X4 rbl0 rwl0 net2 gnd sky130_fd_pr__nfet_01v8 w=0.84 l=0.15
X5 gnd q net3 gnd sky130_fd_pr__nfet_01v8 w=0.84 l=0.15
X6 vdd q q_bar vdd sky130_fd_pr__pfet_01v8 w=0.84 l=0.15
X7 gnd q_bar q gnd sky130_fd_pr__nfet_01v8 w=0.42 l=0.15
X8 net1 wbl0 gnd gnd sky130_fd_pr__nfet_01v8 w=0.42 l=0.15
X9 wbl0 wwl0 q gnd sky130_fd_pr__nfet_01v8 w=0.84 l=0.15
X10 net1 wwl0 q_bar gnd sky130_fd_pr__nfet_01v8 w=0.84 l=0.15
X11 net1 wbl0 vdd vdd sky130_fd_pr__pfet_01v8 w=0.84 l=0.15
.ends

.SUBCKT bitcell_array read_bl_0_0 read_bl_1_0 read_bl_0_1 read_bl_1_1 read_bl_0_2 read_bl_1_2 read_bl_0_3 read_bl_1_3 read_bl_0_4 read_bl_1_4 read_bl_0_5 read_bl_1_5 read_bl_0_6 read_bl_1_6 read_bl_0_7 read_bl_1_7 read_bl_0_8 read_bl_1_8 read_bl_0_9 read_bl_1_9 read_bl_0_10 read_bl_1_10 read_bl_0_11 read_bl_1_11 read_bl_0_12 read_bl_1_12 read_bl_0_13 read_bl_1_13 read_bl_0_14 read_bl_1_14 read_bl_0_15 read_bl_1_15 read_bl_0_16 read_bl_1_16 read_bl_0_17 read_bl_1_17 read_bl_0_18 read_bl_1_18 read_bl_0_19 read_bl_1_19 read_bl_0_20 read_bl_1_20 read_bl_0_21 read_bl_1_21 read_bl_0_22 read_bl_1_22 read_bl_0_23 read_bl_1_23 read_bl_0_24 read_bl_1_24 read_bl_0_25 read_bl_1_25 read_bl_0_26 read_bl_1_26 read_bl_0_27 read_bl_1_27 read_bl_0_28 read_bl_1_28 read_bl_0_29 read_bl_1_29 read_bl_0_30 read_bl_1_30 read_bl_0_31 read_bl_1_31 write_bl_0_0 write_bl_0_1 write_bl_0_2 write_bl_0_3 write_bl_0_4 write_bl_0_5 write_bl_0_6 write_bl_0_7 write_bl_0_8 write_bl_0_9 write_bl_0_10 write_bl_0_11 write_bl_0_12 write_bl_0_13 write_bl_0_14 write_bl_0_15 write_bl_0_16 write_bl_0_17 write_bl_0_18 write_bl_0_19 write_bl_0_20 write_bl_0_21 write_bl_0_22 write_bl_0_23 write_bl_0_24 write_bl_0_25 write_bl_0_26 write_bl_0_27 write_bl_0_28 write_bl_0_29 write_bl_0_30 write_bl_0_31 rwl_0_0 rwl_1_0 rwl_0_1 rwl_1_1 rwl_0_2 rwl_1_2 rwl_0_3 rwl_1_3 rwl_0_4 rwl_1_4 rwl_0_5 rwl_1_5 rwl_0_6 rwl_1_6 rwl_0_7 rwl_1_7 rwl_0_8 rwl_1_8 rwl_0_9 rwl_1_9 rwl_0_10 rwl_1_10 rwl_0_11 rwl_1_11 rwl_0_12 rwl_1_12 rwl_0_13 rwl_1_13 rwl_0_14 rwl_1_14 rwl_0_15 rwl_1_15 wwl_0_0 wwl_0_1 wwl_0_2 wwl_0_3 wwl_0_4 wwl_0_5 wwl_0_6 wwl_0_7 wwl_0_8 wwl_0_9 wwl_0_10 wwl_0_11 wwl_0_12 wwl_0_13 wwl_0_14 wwl_0_15 vdd gnd
*.PININFO read_bl_0_0:B read_bl_1_0:B read_bl_0_1:B read_bl_1_1:B read_bl_0_2:B read_bl_1_2:B read_bl_0_3:B read_bl_1_3:B read_bl_0_4:B read_bl_1_4:B read_bl_0_5:B read_bl_1_5:B read_bl_0_6:B read_bl_1_6:B read_bl_0_7:B read_bl_1_7:B read_bl_0_8:B read_bl_1_8:B read_bl_0_9:B read_bl_1_9:B read_bl_0_10:B read_bl_1_10:B read_bl_0_11:B read_bl_1_11:B read_bl_0_12:B read_bl_1_12:B read_bl_0_13:B read_bl_1_13:B read_bl_0_14:B read_bl_1_14:B read_bl_0_15:B read_bl_1_15:B read_bl_0_16:B read_bl_1_16:B read_bl_0_17:B read_bl_1_17:B read_bl_0_18:B read_bl_1_18:B read_bl_0_19:B read_bl_1_19:B read_bl_0_20:B read_bl_1_20:B read_bl_0_21:B read_bl_1_21:B read_bl_0_22:B read_bl_1_22:B read_bl_0_23:B read_bl_1_23:B read_bl_0_24:B read_bl_1_24:B read_bl_0_25:B read_bl_1_25:B read_bl_0_26:B read_bl_1_26:B read_bl_0_27:B read_bl_1_27:B read_bl_0_28:B read_bl_1_28:B read_bl_0_29:B read_bl_1_29:B read_bl_0_30:B read_bl_1_30:B read_bl_0_31:B read_bl_1_31:B write_bl_0_0:I write_bl_0_1:I write_bl_0_2:I write_bl_0_3:I write_bl_0_4:I write_bl_0_5:I write_bl_0_6:I write_bl_0_7:I write_bl_0_8:I write_bl_0_9:I write_bl_0_10:I write_bl_0_11:I write_bl_0_12:I write_bl_0_13:I write_bl_0_14:I write_bl_0_15:I write_bl_0_16:I write_bl_0_17:I write_bl_0_18:I write_bl_0_19:I write_bl_0_20:I write_bl_0_21:I write_bl_0_22:I write_bl_0_23:I write_bl_0_24:I write_bl_0_25:I write_bl_0_26:I write_bl_0_27:I write_bl_0_28:I write_bl_0_29:I write_bl_0_30:I write_bl_0_31:I rwl_0_0:I rwl_1_0:I rwl_0_1:I rwl_1_1:I rwl_0_2:I rwl_1_2:I rwl_0_3:I rwl_1_3:I rwl_0_4:I rwl_1_4:I rwl_0_5:I rwl_1_5:I rwl_0_6:I rwl_1_6:I rwl_0_7:I rwl_1_7:I rwl_0_8:I rwl_1_8:I rwl_0_9:I rwl_1_9:I rwl_0_10:I rwl_1_10:I rwl_0_11:I rwl_1_11:I rwl_0_12:I rwl_1_12:I rwl_0_13:I rwl_1_13:I rwl_0_14:I rwl_1_14:I rwl_0_15:I rwl_1_15:I wwl_0_0:I wwl_0_1:I wwl_0_2:I wwl_0_3:I wwl_0_4:I wwl_0_5:I wwl_0_6:I wwl_0_7:I wwl_0_8:I wwl_0_9:I wwl_0_10:I wwl_0_11:I wwl_0_12:I wwl_0_13:I wwl_0_14:I wwl_0_15:I vdd:B gnd:B
* INOUT : read_bl_0_0 
* INOUT : read_bl_1_0 
* INOUT : read_bl_0_1 
* INOUT : read_bl_1_1 
* INOUT : read_bl_0_2 
* INOUT : read_bl_1_2 
* INOUT : read_bl_0_3 
* INOUT : read_bl_1_3 
* INOUT : read_bl_0_4 
* INOUT : read_bl_1_4 
* INOUT : read_bl_0_5 
* INOUT : read_bl_1_5 
* INOUT : read_bl_0_6 
* INOUT : read_bl_1_6 
* INOUT : read_bl_0_7 
* INOUT : read_bl_1_7 
* INOUT : read_bl_0_8 
* INOUT : read_bl_1_8 
* INOUT : read_bl_0_9 
* INOUT : read_bl_1_9 
* INOUT : read_bl_0_10 
* INOUT : read_bl_1_10 
* INOUT : read_bl_0_11 
* INOUT : read_bl_1_11 
* INOUT : read_bl_0_12 
* INOUT : read_bl_1_12 
* INOUT : read_bl_0_13 
* INOUT : read_bl_1_13 
* INOUT : read_bl_0_14 
* INOUT : read_bl_1_14 
* INOUT : read_bl_0_15 
* INOUT : read_bl_1_15 
* INOUT : read_bl_0_16 
* INOUT : read_bl_1_16 
* INOUT : read_bl_0_17 
* INOUT : read_bl_1_17 
* INOUT : read_bl_0_18 
* INOUT : read_bl_1_18 
* INOUT : read_bl_0_19 
* INOUT : read_bl_1_19 
* INOUT : read_bl_0_20 
* INOUT : read_bl_1_20 
* INOUT : read_bl_0_21 
* INOUT : read_bl_1_21 
* INOUT : read_bl_0_22 
* INOUT : read_bl_1_22 
* INOUT : read_bl_0_23 
* INOUT : read_bl_1_23 
* INOUT : read_bl_0_24 
* INOUT : read_bl_1_24 
* INOUT : read_bl_0_25 
* INOUT : read_bl_1_25 
* INOUT : read_bl_0_26 
* INOUT : read_bl_1_26 
* INOUT : read_bl_0_27 
* INOUT : read_bl_1_27 
* INOUT : read_bl_0_28 
* INOUT : read_bl_1_28 
* INOUT : read_bl_0_29 
* INOUT : read_bl_1_29 
* INOUT : read_bl_0_30 
* INOUT : read_bl_1_30 
* INOUT : read_bl_0_31 
* INOUT : read_bl_1_31 
* INPUT : write_bl_0_0 
* INPUT : write_bl_0_1 
* INPUT : write_bl_0_2 
* INPUT : write_bl_0_3 
* INPUT : write_bl_0_4 
* INPUT : write_bl_0_5 
* INPUT : write_bl_0_6 
* INPUT : write_bl_0_7 
* INPUT : write_bl_0_8 
* INPUT : write_bl_0_9 
* INPUT : write_bl_0_10 
* INPUT : write_bl_0_11 
* INPUT : write_bl_0_12 
* INPUT : write_bl_0_13 
* INPUT : write_bl_0_14 
* INPUT : write_bl_0_15 
* INPUT : write_bl_0_16 
* INPUT : write_bl_0_17 
* INPUT : write_bl_0_18 
* INPUT : write_bl_0_19 
* INPUT : write_bl_0_20 
* INPUT : write_bl_0_21 
* INPUT : write_bl_0_22 
* INPUT : write_bl_0_23 
* INPUT : write_bl_0_24 
* INPUT : write_bl_0_25 
* INPUT : write_bl_0_26 
* INPUT : write_bl_0_27 
* INPUT : write_bl_0_28 
* INPUT : write_bl_0_29 
* INPUT : write_bl_0_30 
* INPUT : write_bl_0_31 
* INPUT : rwl_0_0 
* INPUT : rwl_1_0 
* INPUT : rwl_0_1 
* INPUT : rwl_1_1 
* INPUT : rwl_0_2 
* INPUT : rwl_1_2 
* INPUT : rwl_0_3 
* INPUT : rwl_1_3 
* INPUT : rwl_0_4 
* INPUT : rwl_1_4 
* INPUT : rwl_0_5 
* INPUT : rwl_1_5 
* INPUT : rwl_0_6 
* INPUT : rwl_1_6 
* INPUT : rwl_0_7 
* INPUT : rwl_1_7 
* INPUT : rwl_0_8 
* INPUT : rwl_1_8 
* INPUT : rwl_0_9 
* INPUT : rwl_1_9 
* INPUT : rwl_0_10 
* INPUT : rwl_1_10 
* INPUT : rwl_0_11 
* INPUT : rwl_1_11 
* INPUT : rwl_0_12 
* INPUT : rwl_1_12 
* INPUT : rwl_0_13 
* INPUT : rwl_1_13 
* INPUT : rwl_0_14 
* INPUT : rwl_1_14 
* INPUT : rwl_0_15 
* INPUT : rwl_1_15 
* INPUT : wwl_0_0 
* INPUT : wwl_0_1 
* INPUT : wwl_0_2 
* INPUT : wwl_0_3 
* INPUT : wwl_0_4 
* INPUT : wwl_0_5 
* INPUT : wwl_0_6 
* INPUT : wwl_0_7 
* INPUT : wwl_0_8 
* INPUT : wwl_0_9 
* INPUT : wwl_0_10 
* INPUT : wwl_0_11 
* INPUT : wwl_0_12 
* INPUT : wwl_0_13 
* INPUT : wwl_0_14 
* INPUT : wwl_0_15 
* POWER : vdd 
* GROUND: gnd 
* rows: 16 cols: 32
Xbit_r0_c0 read_bl_0_0 rwl_0_0 read_bl_1_0 rwl_1_0 write_bl_0_0 wwl_0_0 vdd gnd cell_2r1w
Xbit_r1_c0 read_bl_0_0 rwl_0_1 read_bl_1_0 rwl_1_1 write_bl_0_0 wwl_0_1 vdd gnd cell_2r1w
Xbit_r2_c0 read_bl_0_0 rwl_0_2 read_bl_1_0 rwl_1_2 write_bl_0_0 wwl_0_2 vdd gnd cell_2r1w
Xbit_r3_c0 read_bl_0_0 rwl_0_3 read_bl_1_0 rwl_1_3 write_bl_0_0 wwl_0_3 vdd gnd cell_2r1w
Xbit_r4_c0 read_bl_0_0 rwl_0_4 read_bl_1_0 rwl_1_4 write_bl_0_0 wwl_0_4 vdd gnd cell_2r1w
Xbit_r5_c0 read_bl_0_0 rwl_0_5 read_bl_1_0 rwl_1_5 write_bl_0_0 wwl_0_5 vdd gnd cell_2r1w
Xbit_r6_c0 read_bl_0_0 rwl_0_6 read_bl_1_0 rwl_1_6 write_bl_0_0 wwl_0_6 vdd gnd cell_2r1w
Xbit_r7_c0 read_bl_0_0 rwl_0_7 read_bl_1_0 rwl_1_7 write_bl_0_0 wwl_0_7 vdd gnd cell_2r1w
Xbit_r8_c0 read_bl_0_0 rwl_0_8 read_bl_1_0 rwl_1_8 write_bl_0_0 wwl_0_8 vdd gnd cell_2r1w
Xbit_r9_c0 read_bl_0_0 rwl_0_9 read_bl_1_0 rwl_1_9 write_bl_0_0 wwl_0_9 vdd gnd cell_2r1w
Xbit_r10_c0 read_bl_0_0 rwl_0_10 read_bl_1_0 rwl_1_10 write_bl_0_0 wwl_0_10 vdd gnd cell_2r1w
Xbit_r11_c0 read_bl_0_0 rwl_0_11 read_bl_1_0 rwl_1_11 write_bl_0_0 wwl_0_11 vdd gnd cell_2r1w
Xbit_r12_c0 read_bl_0_0 rwl_0_12 read_bl_1_0 rwl_1_12 write_bl_0_0 wwl_0_12 vdd gnd cell_2r1w
Xbit_r13_c0 read_bl_0_0 rwl_0_13 read_bl_1_0 rwl_1_13 write_bl_0_0 wwl_0_13 vdd gnd cell_2r1w
Xbit_r14_c0 read_bl_0_0 rwl_0_14 read_bl_1_0 rwl_1_14 write_bl_0_0 wwl_0_14 vdd gnd cell_2r1w
Xbit_r15_c0 read_bl_0_0 rwl_0_15 read_bl_1_0 rwl_1_15 write_bl_0_0 wwl_0_15 vdd gnd cell_2r1w
Xbit_r0_c1 read_bl_0_1 rwl_0_0 read_bl_1_1 rwl_1_0 write_bl_0_1 wwl_0_0 vdd gnd cell_2r1w
Xbit_r1_c1 read_bl_0_1 rwl_0_1 read_bl_1_1 rwl_1_1 write_bl_0_1 wwl_0_1 vdd gnd cell_2r1w
Xbit_r2_c1 read_bl_0_1 rwl_0_2 read_bl_1_1 rwl_1_2 write_bl_0_1 wwl_0_2 vdd gnd cell_2r1w
Xbit_r3_c1 read_bl_0_1 rwl_0_3 read_bl_1_1 rwl_1_3 write_bl_0_1 wwl_0_3 vdd gnd cell_2r1w
Xbit_r4_c1 read_bl_0_1 rwl_0_4 read_bl_1_1 rwl_1_4 write_bl_0_1 wwl_0_4 vdd gnd cell_2r1w
Xbit_r5_c1 read_bl_0_1 rwl_0_5 read_bl_1_1 rwl_1_5 write_bl_0_1 wwl_0_5 vdd gnd cell_2r1w
Xbit_r6_c1 read_bl_0_1 rwl_0_6 read_bl_1_1 rwl_1_6 write_bl_0_1 wwl_0_6 vdd gnd cell_2r1w
Xbit_r7_c1 read_bl_0_1 rwl_0_7 read_bl_1_1 rwl_1_7 write_bl_0_1 wwl_0_7 vdd gnd cell_2r1w
Xbit_r8_c1 read_bl_0_1 rwl_0_8 read_bl_1_1 rwl_1_8 write_bl_0_1 wwl_0_8 vdd gnd cell_2r1w
Xbit_r9_c1 read_bl_0_1 rwl_0_9 read_bl_1_1 rwl_1_9 write_bl_0_1 wwl_0_9 vdd gnd cell_2r1w
Xbit_r10_c1 read_bl_0_1 rwl_0_10 read_bl_1_1 rwl_1_10 write_bl_0_1 wwl_0_10 vdd gnd cell_2r1w
Xbit_r11_c1 read_bl_0_1 rwl_0_11 read_bl_1_1 rwl_1_11 write_bl_0_1 wwl_0_11 vdd gnd cell_2r1w
Xbit_r12_c1 read_bl_0_1 rwl_0_12 read_bl_1_1 rwl_1_12 write_bl_0_1 wwl_0_12 vdd gnd cell_2r1w
Xbit_r13_c1 read_bl_0_1 rwl_0_13 read_bl_1_1 rwl_1_13 write_bl_0_1 wwl_0_13 vdd gnd cell_2r1w
Xbit_r14_c1 read_bl_0_1 rwl_0_14 read_bl_1_1 rwl_1_14 write_bl_0_1 wwl_0_14 vdd gnd cell_2r1w
Xbit_r15_c1 read_bl_0_1 rwl_0_15 read_bl_1_1 rwl_1_15 write_bl_0_1 wwl_0_15 vdd gnd cell_2r1w
Xbit_r0_c2 read_bl_0_2 rwl_0_0 read_bl_1_2 rwl_1_0 write_bl_0_2 wwl_0_0 vdd gnd cell_2r1w
Xbit_r1_c2 read_bl_0_2 rwl_0_1 read_bl_1_2 rwl_1_1 write_bl_0_2 wwl_0_1 vdd gnd cell_2r1w
Xbit_r2_c2 read_bl_0_2 rwl_0_2 read_bl_1_2 rwl_1_2 write_bl_0_2 wwl_0_2 vdd gnd cell_2r1w
Xbit_r3_c2 read_bl_0_2 rwl_0_3 read_bl_1_2 rwl_1_3 write_bl_0_2 wwl_0_3 vdd gnd cell_2r1w
Xbit_r4_c2 read_bl_0_2 rwl_0_4 read_bl_1_2 rwl_1_4 write_bl_0_2 wwl_0_4 vdd gnd cell_2r1w
Xbit_r5_c2 read_bl_0_2 rwl_0_5 read_bl_1_2 rwl_1_5 write_bl_0_2 wwl_0_5 vdd gnd cell_2r1w
Xbit_r6_c2 read_bl_0_2 rwl_0_6 read_bl_1_2 rwl_1_6 write_bl_0_2 wwl_0_6 vdd gnd cell_2r1w
Xbit_r7_c2 read_bl_0_2 rwl_0_7 read_bl_1_2 rwl_1_7 write_bl_0_2 wwl_0_7 vdd gnd cell_2r1w
Xbit_r8_c2 read_bl_0_2 rwl_0_8 read_bl_1_2 rwl_1_8 write_bl_0_2 wwl_0_8 vdd gnd cell_2r1w
Xbit_r9_c2 read_bl_0_2 rwl_0_9 read_bl_1_2 rwl_1_9 write_bl_0_2 wwl_0_9 vdd gnd cell_2r1w
Xbit_r10_c2 read_bl_0_2 rwl_0_10 read_bl_1_2 rwl_1_10 write_bl_0_2 wwl_0_10 vdd gnd cell_2r1w
Xbit_r11_c2 read_bl_0_2 rwl_0_11 read_bl_1_2 rwl_1_11 write_bl_0_2 wwl_0_11 vdd gnd cell_2r1w
Xbit_r12_c2 read_bl_0_2 rwl_0_12 read_bl_1_2 rwl_1_12 write_bl_0_2 wwl_0_12 vdd gnd cell_2r1w
Xbit_r13_c2 read_bl_0_2 rwl_0_13 read_bl_1_2 rwl_1_13 write_bl_0_2 wwl_0_13 vdd gnd cell_2r1w
Xbit_r14_c2 read_bl_0_2 rwl_0_14 read_bl_1_2 rwl_1_14 write_bl_0_2 wwl_0_14 vdd gnd cell_2r1w
Xbit_r15_c2 read_bl_0_2 rwl_0_15 read_bl_1_2 rwl_1_15 write_bl_0_2 wwl_0_15 vdd gnd cell_2r1w
Xbit_r0_c3 read_bl_0_3 rwl_0_0 read_bl_1_3 rwl_1_0 write_bl_0_3 wwl_0_0 vdd gnd cell_2r1w
Xbit_r1_c3 read_bl_0_3 rwl_0_1 read_bl_1_3 rwl_1_1 write_bl_0_3 wwl_0_1 vdd gnd cell_2r1w
Xbit_r2_c3 read_bl_0_3 rwl_0_2 read_bl_1_3 rwl_1_2 write_bl_0_3 wwl_0_2 vdd gnd cell_2r1w
Xbit_r3_c3 read_bl_0_3 rwl_0_3 read_bl_1_3 rwl_1_3 write_bl_0_3 wwl_0_3 vdd gnd cell_2r1w
Xbit_r4_c3 read_bl_0_3 rwl_0_4 read_bl_1_3 rwl_1_4 write_bl_0_3 wwl_0_4 vdd gnd cell_2r1w
Xbit_r5_c3 read_bl_0_3 rwl_0_5 read_bl_1_3 rwl_1_5 write_bl_0_3 wwl_0_5 vdd gnd cell_2r1w
Xbit_r6_c3 read_bl_0_3 rwl_0_6 read_bl_1_3 rwl_1_6 write_bl_0_3 wwl_0_6 vdd gnd cell_2r1w
Xbit_r7_c3 read_bl_0_3 rwl_0_7 read_bl_1_3 rwl_1_7 write_bl_0_3 wwl_0_7 vdd gnd cell_2r1w
Xbit_r8_c3 read_bl_0_3 rwl_0_8 read_bl_1_3 rwl_1_8 write_bl_0_3 wwl_0_8 vdd gnd cell_2r1w
Xbit_r9_c3 read_bl_0_3 rwl_0_9 read_bl_1_3 rwl_1_9 write_bl_0_3 wwl_0_9 vdd gnd cell_2r1w
Xbit_r10_c3 read_bl_0_3 rwl_0_10 read_bl_1_3 rwl_1_10 write_bl_0_3 wwl_0_10 vdd gnd cell_2r1w
Xbit_r11_c3 read_bl_0_3 rwl_0_11 read_bl_1_3 rwl_1_11 write_bl_0_3 wwl_0_11 vdd gnd cell_2r1w
Xbit_r12_c3 read_bl_0_3 rwl_0_12 read_bl_1_3 rwl_1_12 write_bl_0_3 wwl_0_12 vdd gnd cell_2r1w
Xbit_r13_c3 read_bl_0_3 rwl_0_13 read_bl_1_3 rwl_1_13 write_bl_0_3 wwl_0_13 vdd gnd cell_2r1w
Xbit_r14_c3 read_bl_0_3 rwl_0_14 read_bl_1_3 rwl_1_14 write_bl_0_3 wwl_0_14 vdd gnd cell_2r1w
Xbit_r15_c3 read_bl_0_3 rwl_0_15 read_bl_1_3 rwl_1_15 write_bl_0_3 wwl_0_15 vdd gnd cell_2r1w
Xbit_r0_c4 read_bl_0_4 rwl_0_0 read_bl_1_4 rwl_1_0 write_bl_0_4 wwl_0_0 vdd gnd cell_2r1w
Xbit_r1_c4 read_bl_0_4 rwl_0_1 read_bl_1_4 rwl_1_1 write_bl_0_4 wwl_0_1 vdd gnd cell_2r1w
Xbit_r2_c4 read_bl_0_4 rwl_0_2 read_bl_1_4 rwl_1_2 write_bl_0_4 wwl_0_2 vdd gnd cell_2r1w
Xbit_r3_c4 read_bl_0_4 rwl_0_3 read_bl_1_4 rwl_1_3 write_bl_0_4 wwl_0_3 vdd gnd cell_2r1w
Xbit_r4_c4 read_bl_0_4 rwl_0_4 read_bl_1_4 rwl_1_4 write_bl_0_4 wwl_0_4 vdd gnd cell_2r1w
Xbit_r5_c4 read_bl_0_4 rwl_0_5 read_bl_1_4 rwl_1_5 write_bl_0_4 wwl_0_5 vdd gnd cell_2r1w
Xbit_r6_c4 read_bl_0_4 rwl_0_6 read_bl_1_4 rwl_1_6 write_bl_0_4 wwl_0_6 vdd gnd cell_2r1w
Xbit_r7_c4 read_bl_0_4 rwl_0_7 read_bl_1_4 rwl_1_7 write_bl_0_4 wwl_0_7 vdd gnd cell_2r1w
Xbit_r8_c4 read_bl_0_4 rwl_0_8 read_bl_1_4 rwl_1_8 write_bl_0_4 wwl_0_8 vdd gnd cell_2r1w
Xbit_r9_c4 read_bl_0_4 rwl_0_9 read_bl_1_4 rwl_1_9 write_bl_0_4 wwl_0_9 vdd gnd cell_2r1w
Xbit_r10_c4 read_bl_0_4 rwl_0_10 read_bl_1_4 rwl_1_10 write_bl_0_4 wwl_0_10 vdd gnd cell_2r1w
Xbit_r11_c4 read_bl_0_4 rwl_0_11 read_bl_1_4 rwl_1_11 write_bl_0_4 wwl_0_11 vdd gnd cell_2r1w
Xbit_r12_c4 read_bl_0_4 rwl_0_12 read_bl_1_4 rwl_1_12 write_bl_0_4 wwl_0_12 vdd gnd cell_2r1w
Xbit_r13_c4 read_bl_0_4 rwl_0_13 read_bl_1_4 rwl_1_13 write_bl_0_4 wwl_0_13 vdd gnd cell_2r1w
Xbit_r14_c4 read_bl_0_4 rwl_0_14 read_bl_1_4 rwl_1_14 write_bl_0_4 wwl_0_14 vdd gnd cell_2r1w
Xbit_r15_c4 read_bl_0_4 rwl_0_15 read_bl_1_4 rwl_1_15 write_bl_0_4 wwl_0_15 vdd gnd cell_2r1w
Xbit_r0_c5 read_bl_0_5 rwl_0_0 read_bl_1_5 rwl_1_0 write_bl_0_5 wwl_0_0 vdd gnd cell_2r1w
Xbit_r1_c5 read_bl_0_5 rwl_0_1 read_bl_1_5 rwl_1_1 write_bl_0_5 wwl_0_1 vdd gnd cell_2r1w
Xbit_r2_c5 read_bl_0_5 rwl_0_2 read_bl_1_5 rwl_1_2 write_bl_0_5 wwl_0_2 vdd gnd cell_2r1w
Xbit_r3_c5 read_bl_0_5 rwl_0_3 read_bl_1_5 rwl_1_3 write_bl_0_5 wwl_0_3 vdd gnd cell_2r1w
Xbit_r4_c5 read_bl_0_5 rwl_0_4 read_bl_1_5 rwl_1_4 write_bl_0_5 wwl_0_4 vdd gnd cell_2r1w
Xbit_r5_c5 read_bl_0_5 rwl_0_5 read_bl_1_5 rwl_1_5 write_bl_0_5 wwl_0_5 vdd gnd cell_2r1w
Xbit_r6_c5 read_bl_0_5 rwl_0_6 read_bl_1_5 rwl_1_6 write_bl_0_5 wwl_0_6 vdd gnd cell_2r1w
Xbit_r7_c5 read_bl_0_5 rwl_0_7 read_bl_1_5 rwl_1_7 write_bl_0_5 wwl_0_7 vdd gnd cell_2r1w
Xbit_r8_c5 read_bl_0_5 rwl_0_8 read_bl_1_5 rwl_1_8 write_bl_0_5 wwl_0_8 vdd gnd cell_2r1w
Xbit_r9_c5 read_bl_0_5 rwl_0_9 read_bl_1_5 rwl_1_9 write_bl_0_5 wwl_0_9 vdd gnd cell_2r1w
Xbit_r10_c5 read_bl_0_5 rwl_0_10 read_bl_1_5 rwl_1_10 write_bl_0_5 wwl_0_10 vdd gnd cell_2r1w
Xbit_r11_c5 read_bl_0_5 rwl_0_11 read_bl_1_5 rwl_1_11 write_bl_0_5 wwl_0_11 vdd gnd cell_2r1w
Xbit_r12_c5 read_bl_0_5 rwl_0_12 read_bl_1_5 rwl_1_12 write_bl_0_5 wwl_0_12 vdd gnd cell_2r1w
Xbit_r13_c5 read_bl_0_5 rwl_0_13 read_bl_1_5 rwl_1_13 write_bl_0_5 wwl_0_13 vdd gnd cell_2r1w
Xbit_r14_c5 read_bl_0_5 rwl_0_14 read_bl_1_5 rwl_1_14 write_bl_0_5 wwl_0_14 vdd gnd cell_2r1w
Xbit_r15_c5 read_bl_0_5 rwl_0_15 read_bl_1_5 rwl_1_15 write_bl_0_5 wwl_0_15 vdd gnd cell_2r1w
Xbit_r0_c6 read_bl_0_6 rwl_0_0 read_bl_1_6 rwl_1_0 write_bl_0_6 wwl_0_0 vdd gnd cell_2r1w
Xbit_r1_c6 read_bl_0_6 rwl_0_1 read_bl_1_6 rwl_1_1 write_bl_0_6 wwl_0_1 vdd gnd cell_2r1w
Xbit_r2_c6 read_bl_0_6 rwl_0_2 read_bl_1_6 rwl_1_2 write_bl_0_6 wwl_0_2 vdd gnd cell_2r1w
Xbit_r3_c6 read_bl_0_6 rwl_0_3 read_bl_1_6 rwl_1_3 write_bl_0_6 wwl_0_3 vdd gnd cell_2r1w
Xbit_r4_c6 read_bl_0_6 rwl_0_4 read_bl_1_6 rwl_1_4 write_bl_0_6 wwl_0_4 vdd gnd cell_2r1w
Xbit_r5_c6 read_bl_0_6 rwl_0_5 read_bl_1_6 rwl_1_5 write_bl_0_6 wwl_0_5 vdd gnd cell_2r1w
Xbit_r6_c6 read_bl_0_6 rwl_0_6 read_bl_1_6 rwl_1_6 write_bl_0_6 wwl_0_6 vdd gnd cell_2r1w
Xbit_r7_c6 read_bl_0_6 rwl_0_7 read_bl_1_6 rwl_1_7 write_bl_0_6 wwl_0_7 vdd gnd cell_2r1w
Xbit_r8_c6 read_bl_0_6 rwl_0_8 read_bl_1_6 rwl_1_8 write_bl_0_6 wwl_0_8 vdd gnd cell_2r1w
Xbit_r9_c6 read_bl_0_6 rwl_0_9 read_bl_1_6 rwl_1_9 write_bl_0_6 wwl_0_9 vdd gnd cell_2r1w
Xbit_r10_c6 read_bl_0_6 rwl_0_10 read_bl_1_6 rwl_1_10 write_bl_0_6 wwl_0_10 vdd gnd cell_2r1w
Xbit_r11_c6 read_bl_0_6 rwl_0_11 read_bl_1_6 rwl_1_11 write_bl_0_6 wwl_0_11 vdd gnd cell_2r1w
Xbit_r12_c6 read_bl_0_6 rwl_0_12 read_bl_1_6 rwl_1_12 write_bl_0_6 wwl_0_12 vdd gnd cell_2r1w
Xbit_r13_c6 read_bl_0_6 rwl_0_13 read_bl_1_6 rwl_1_13 write_bl_0_6 wwl_0_13 vdd gnd cell_2r1w
Xbit_r14_c6 read_bl_0_6 rwl_0_14 read_bl_1_6 rwl_1_14 write_bl_0_6 wwl_0_14 vdd gnd cell_2r1w
Xbit_r15_c6 read_bl_0_6 rwl_0_15 read_bl_1_6 rwl_1_15 write_bl_0_6 wwl_0_15 vdd gnd cell_2r1w
Xbit_r0_c7 read_bl_0_7 rwl_0_0 read_bl_1_7 rwl_1_0 write_bl_0_7 wwl_0_0 vdd gnd cell_2r1w
Xbit_r1_c7 read_bl_0_7 rwl_0_1 read_bl_1_7 rwl_1_1 write_bl_0_7 wwl_0_1 vdd gnd cell_2r1w
Xbit_r2_c7 read_bl_0_7 rwl_0_2 read_bl_1_7 rwl_1_2 write_bl_0_7 wwl_0_2 vdd gnd cell_2r1w
Xbit_r3_c7 read_bl_0_7 rwl_0_3 read_bl_1_7 rwl_1_3 write_bl_0_7 wwl_0_3 vdd gnd cell_2r1w
Xbit_r4_c7 read_bl_0_7 rwl_0_4 read_bl_1_7 rwl_1_4 write_bl_0_7 wwl_0_4 vdd gnd cell_2r1w
Xbit_r5_c7 read_bl_0_7 rwl_0_5 read_bl_1_7 rwl_1_5 write_bl_0_7 wwl_0_5 vdd gnd cell_2r1w
Xbit_r6_c7 read_bl_0_7 rwl_0_6 read_bl_1_7 rwl_1_6 write_bl_0_7 wwl_0_6 vdd gnd cell_2r1w
Xbit_r7_c7 read_bl_0_7 rwl_0_7 read_bl_1_7 rwl_1_7 write_bl_0_7 wwl_0_7 vdd gnd cell_2r1w
Xbit_r8_c7 read_bl_0_7 rwl_0_8 read_bl_1_7 rwl_1_8 write_bl_0_7 wwl_0_8 vdd gnd cell_2r1w
Xbit_r9_c7 read_bl_0_7 rwl_0_9 read_bl_1_7 rwl_1_9 write_bl_0_7 wwl_0_9 vdd gnd cell_2r1w
Xbit_r10_c7 read_bl_0_7 rwl_0_10 read_bl_1_7 rwl_1_10 write_bl_0_7 wwl_0_10 vdd gnd cell_2r1w
Xbit_r11_c7 read_bl_0_7 rwl_0_11 read_bl_1_7 rwl_1_11 write_bl_0_7 wwl_0_11 vdd gnd cell_2r1w
Xbit_r12_c7 read_bl_0_7 rwl_0_12 read_bl_1_7 rwl_1_12 write_bl_0_7 wwl_0_12 vdd gnd cell_2r1w
Xbit_r13_c7 read_bl_0_7 rwl_0_13 read_bl_1_7 rwl_1_13 write_bl_0_7 wwl_0_13 vdd gnd cell_2r1w
Xbit_r14_c7 read_bl_0_7 rwl_0_14 read_bl_1_7 rwl_1_14 write_bl_0_7 wwl_0_14 vdd gnd cell_2r1w
Xbit_r15_c7 read_bl_0_7 rwl_0_15 read_bl_1_7 rwl_1_15 write_bl_0_7 wwl_0_15 vdd gnd cell_2r1w
Xbit_r0_c8 read_bl_0_8 rwl_0_0 read_bl_1_8 rwl_1_0 write_bl_0_8 wwl_0_0 vdd gnd cell_2r1w
Xbit_r1_c8 read_bl_0_8 rwl_0_1 read_bl_1_8 rwl_1_1 write_bl_0_8 wwl_0_1 vdd gnd cell_2r1w
Xbit_r2_c8 read_bl_0_8 rwl_0_2 read_bl_1_8 rwl_1_2 write_bl_0_8 wwl_0_2 vdd gnd cell_2r1w
Xbit_r3_c8 read_bl_0_8 rwl_0_3 read_bl_1_8 rwl_1_3 write_bl_0_8 wwl_0_3 vdd gnd cell_2r1w
Xbit_r4_c8 read_bl_0_8 rwl_0_4 read_bl_1_8 rwl_1_4 write_bl_0_8 wwl_0_4 vdd gnd cell_2r1w
Xbit_r5_c8 read_bl_0_8 rwl_0_5 read_bl_1_8 rwl_1_5 write_bl_0_8 wwl_0_5 vdd gnd cell_2r1w
Xbit_r6_c8 read_bl_0_8 rwl_0_6 read_bl_1_8 rwl_1_6 write_bl_0_8 wwl_0_6 vdd gnd cell_2r1w
Xbit_r7_c8 read_bl_0_8 rwl_0_7 read_bl_1_8 rwl_1_7 write_bl_0_8 wwl_0_7 vdd gnd cell_2r1w
Xbit_r8_c8 read_bl_0_8 rwl_0_8 read_bl_1_8 rwl_1_8 write_bl_0_8 wwl_0_8 vdd gnd cell_2r1w
Xbit_r9_c8 read_bl_0_8 rwl_0_9 read_bl_1_8 rwl_1_9 write_bl_0_8 wwl_0_9 vdd gnd cell_2r1w
Xbit_r10_c8 read_bl_0_8 rwl_0_10 read_bl_1_8 rwl_1_10 write_bl_0_8 wwl_0_10 vdd gnd cell_2r1w
Xbit_r11_c8 read_bl_0_8 rwl_0_11 read_bl_1_8 rwl_1_11 write_bl_0_8 wwl_0_11 vdd gnd cell_2r1w
Xbit_r12_c8 read_bl_0_8 rwl_0_12 read_bl_1_8 rwl_1_12 write_bl_0_8 wwl_0_12 vdd gnd cell_2r1w
Xbit_r13_c8 read_bl_0_8 rwl_0_13 read_bl_1_8 rwl_1_13 write_bl_0_8 wwl_0_13 vdd gnd cell_2r1w
Xbit_r14_c8 read_bl_0_8 rwl_0_14 read_bl_1_8 rwl_1_14 write_bl_0_8 wwl_0_14 vdd gnd cell_2r1w
Xbit_r15_c8 read_bl_0_8 rwl_0_15 read_bl_1_8 rwl_1_15 write_bl_0_8 wwl_0_15 vdd gnd cell_2r1w
Xbit_r0_c9 read_bl_0_9 rwl_0_0 read_bl_1_9 rwl_1_0 write_bl_0_9 wwl_0_0 vdd gnd cell_2r1w
Xbit_r1_c9 read_bl_0_9 rwl_0_1 read_bl_1_9 rwl_1_1 write_bl_0_9 wwl_0_1 vdd gnd cell_2r1w
Xbit_r2_c9 read_bl_0_9 rwl_0_2 read_bl_1_9 rwl_1_2 write_bl_0_9 wwl_0_2 vdd gnd cell_2r1w
Xbit_r3_c9 read_bl_0_9 rwl_0_3 read_bl_1_9 rwl_1_3 write_bl_0_9 wwl_0_3 vdd gnd cell_2r1w
Xbit_r4_c9 read_bl_0_9 rwl_0_4 read_bl_1_9 rwl_1_4 write_bl_0_9 wwl_0_4 vdd gnd cell_2r1w
Xbit_r5_c9 read_bl_0_9 rwl_0_5 read_bl_1_9 rwl_1_5 write_bl_0_9 wwl_0_5 vdd gnd cell_2r1w
Xbit_r6_c9 read_bl_0_9 rwl_0_6 read_bl_1_9 rwl_1_6 write_bl_0_9 wwl_0_6 vdd gnd cell_2r1w
Xbit_r7_c9 read_bl_0_9 rwl_0_7 read_bl_1_9 rwl_1_7 write_bl_0_9 wwl_0_7 vdd gnd cell_2r1w
Xbit_r8_c9 read_bl_0_9 rwl_0_8 read_bl_1_9 rwl_1_8 write_bl_0_9 wwl_0_8 vdd gnd cell_2r1w
Xbit_r9_c9 read_bl_0_9 rwl_0_9 read_bl_1_9 rwl_1_9 write_bl_0_9 wwl_0_9 vdd gnd cell_2r1w
Xbit_r10_c9 read_bl_0_9 rwl_0_10 read_bl_1_9 rwl_1_10 write_bl_0_9 wwl_0_10 vdd gnd cell_2r1w
Xbit_r11_c9 read_bl_0_9 rwl_0_11 read_bl_1_9 rwl_1_11 write_bl_0_9 wwl_0_11 vdd gnd cell_2r1w
Xbit_r12_c9 read_bl_0_9 rwl_0_12 read_bl_1_9 rwl_1_12 write_bl_0_9 wwl_0_12 vdd gnd cell_2r1w
Xbit_r13_c9 read_bl_0_9 rwl_0_13 read_bl_1_9 rwl_1_13 write_bl_0_9 wwl_0_13 vdd gnd cell_2r1w
Xbit_r14_c9 read_bl_0_9 rwl_0_14 read_bl_1_9 rwl_1_14 write_bl_0_9 wwl_0_14 vdd gnd cell_2r1w
Xbit_r15_c9 read_bl_0_9 rwl_0_15 read_bl_1_9 rwl_1_15 write_bl_0_9 wwl_0_15 vdd gnd cell_2r1w
Xbit_r0_c10 read_bl_0_10 rwl_0_0 read_bl_1_10 rwl_1_0 write_bl_0_10 wwl_0_0 vdd gnd cell_2r1w
Xbit_r1_c10 read_bl_0_10 rwl_0_1 read_bl_1_10 rwl_1_1 write_bl_0_10 wwl_0_1 vdd gnd cell_2r1w
Xbit_r2_c10 read_bl_0_10 rwl_0_2 read_bl_1_10 rwl_1_2 write_bl_0_10 wwl_0_2 vdd gnd cell_2r1w
Xbit_r3_c10 read_bl_0_10 rwl_0_3 read_bl_1_10 rwl_1_3 write_bl_0_10 wwl_0_3 vdd gnd cell_2r1w
Xbit_r4_c10 read_bl_0_10 rwl_0_4 read_bl_1_10 rwl_1_4 write_bl_0_10 wwl_0_4 vdd gnd cell_2r1w
Xbit_r5_c10 read_bl_0_10 rwl_0_5 read_bl_1_10 rwl_1_5 write_bl_0_10 wwl_0_5 vdd gnd cell_2r1w
Xbit_r6_c10 read_bl_0_10 rwl_0_6 read_bl_1_10 rwl_1_6 write_bl_0_10 wwl_0_6 vdd gnd cell_2r1w
Xbit_r7_c10 read_bl_0_10 rwl_0_7 read_bl_1_10 rwl_1_7 write_bl_0_10 wwl_0_7 vdd gnd cell_2r1w
Xbit_r8_c10 read_bl_0_10 rwl_0_8 read_bl_1_10 rwl_1_8 write_bl_0_10 wwl_0_8 vdd gnd cell_2r1w
Xbit_r9_c10 read_bl_0_10 rwl_0_9 read_bl_1_10 rwl_1_9 write_bl_0_10 wwl_0_9 vdd gnd cell_2r1w
Xbit_r10_c10 read_bl_0_10 rwl_0_10 read_bl_1_10 rwl_1_10 write_bl_0_10 wwl_0_10 vdd gnd cell_2r1w
Xbit_r11_c10 read_bl_0_10 rwl_0_11 read_bl_1_10 rwl_1_11 write_bl_0_10 wwl_0_11 vdd gnd cell_2r1w
Xbit_r12_c10 read_bl_0_10 rwl_0_12 read_bl_1_10 rwl_1_12 write_bl_0_10 wwl_0_12 vdd gnd cell_2r1w
Xbit_r13_c10 read_bl_0_10 rwl_0_13 read_bl_1_10 rwl_1_13 write_bl_0_10 wwl_0_13 vdd gnd cell_2r1w
Xbit_r14_c10 read_bl_0_10 rwl_0_14 read_bl_1_10 rwl_1_14 write_bl_0_10 wwl_0_14 vdd gnd cell_2r1w
Xbit_r15_c10 read_bl_0_10 rwl_0_15 read_bl_1_10 rwl_1_15 write_bl_0_10 wwl_0_15 vdd gnd cell_2r1w
Xbit_r0_c11 read_bl_0_11 rwl_0_0 read_bl_1_11 rwl_1_0 write_bl_0_11 wwl_0_0 vdd gnd cell_2r1w
Xbit_r1_c11 read_bl_0_11 rwl_0_1 read_bl_1_11 rwl_1_1 write_bl_0_11 wwl_0_1 vdd gnd cell_2r1w
Xbit_r2_c11 read_bl_0_11 rwl_0_2 read_bl_1_11 rwl_1_2 write_bl_0_11 wwl_0_2 vdd gnd cell_2r1w
Xbit_r3_c11 read_bl_0_11 rwl_0_3 read_bl_1_11 rwl_1_3 write_bl_0_11 wwl_0_3 vdd gnd cell_2r1w
Xbit_r4_c11 read_bl_0_11 rwl_0_4 read_bl_1_11 rwl_1_4 write_bl_0_11 wwl_0_4 vdd gnd cell_2r1w
Xbit_r5_c11 read_bl_0_11 rwl_0_5 read_bl_1_11 rwl_1_5 write_bl_0_11 wwl_0_5 vdd gnd cell_2r1w
Xbit_r6_c11 read_bl_0_11 rwl_0_6 read_bl_1_11 rwl_1_6 write_bl_0_11 wwl_0_6 vdd gnd cell_2r1w
Xbit_r7_c11 read_bl_0_11 rwl_0_7 read_bl_1_11 rwl_1_7 write_bl_0_11 wwl_0_7 vdd gnd cell_2r1w
Xbit_r8_c11 read_bl_0_11 rwl_0_8 read_bl_1_11 rwl_1_8 write_bl_0_11 wwl_0_8 vdd gnd cell_2r1w
Xbit_r9_c11 read_bl_0_11 rwl_0_9 read_bl_1_11 rwl_1_9 write_bl_0_11 wwl_0_9 vdd gnd cell_2r1w
Xbit_r10_c11 read_bl_0_11 rwl_0_10 read_bl_1_11 rwl_1_10 write_bl_0_11 wwl_0_10 vdd gnd cell_2r1w
Xbit_r11_c11 read_bl_0_11 rwl_0_11 read_bl_1_11 rwl_1_11 write_bl_0_11 wwl_0_11 vdd gnd cell_2r1w
Xbit_r12_c11 read_bl_0_11 rwl_0_12 read_bl_1_11 rwl_1_12 write_bl_0_11 wwl_0_12 vdd gnd cell_2r1w
Xbit_r13_c11 read_bl_0_11 rwl_0_13 read_bl_1_11 rwl_1_13 write_bl_0_11 wwl_0_13 vdd gnd cell_2r1w
Xbit_r14_c11 read_bl_0_11 rwl_0_14 read_bl_1_11 rwl_1_14 write_bl_0_11 wwl_0_14 vdd gnd cell_2r1w
Xbit_r15_c11 read_bl_0_11 rwl_0_15 read_bl_1_11 rwl_1_15 write_bl_0_11 wwl_0_15 vdd gnd cell_2r1w
Xbit_r0_c12 read_bl_0_12 rwl_0_0 read_bl_1_12 rwl_1_0 write_bl_0_12 wwl_0_0 vdd gnd cell_2r1w
Xbit_r1_c12 read_bl_0_12 rwl_0_1 read_bl_1_12 rwl_1_1 write_bl_0_12 wwl_0_1 vdd gnd cell_2r1w
Xbit_r2_c12 read_bl_0_12 rwl_0_2 read_bl_1_12 rwl_1_2 write_bl_0_12 wwl_0_2 vdd gnd cell_2r1w
Xbit_r3_c12 read_bl_0_12 rwl_0_3 read_bl_1_12 rwl_1_3 write_bl_0_12 wwl_0_3 vdd gnd cell_2r1w
Xbit_r4_c12 read_bl_0_12 rwl_0_4 read_bl_1_12 rwl_1_4 write_bl_0_12 wwl_0_4 vdd gnd cell_2r1w
Xbit_r5_c12 read_bl_0_12 rwl_0_5 read_bl_1_12 rwl_1_5 write_bl_0_12 wwl_0_5 vdd gnd cell_2r1w
Xbit_r6_c12 read_bl_0_12 rwl_0_6 read_bl_1_12 rwl_1_6 write_bl_0_12 wwl_0_6 vdd gnd cell_2r1w
Xbit_r7_c12 read_bl_0_12 rwl_0_7 read_bl_1_12 rwl_1_7 write_bl_0_12 wwl_0_7 vdd gnd cell_2r1w
Xbit_r8_c12 read_bl_0_12 rwl_0_8 read_bl_1_12 rwl_1_8 write_bl_0_12 wwl_0_8 vdd gnd cell_2r1w
Xbit_r9_c12 read_bl_0_12 rwl_0_9 read_bl_1_12 rwl_1_9 write_bl_0_12 wwl_0_9 vdd gnd cell_2r1w
Xbit_r10_c12 read_bl_0_12 rwl_0_10 read_bl_1_12 rwl_1_10 write_bl_0_12 wwl_0_10 vdd gnd cell_2r1w
Xbit_r11_c12 read_bl_0_12 rwl_0_11 read_bl_1_12 rwl_1_11 write_bl_0_12 wwl_0_11 vdd gnd cell_2r1w
Xbit_r12_c12 read_bl_0_12 rwl_0_12 read_bl_1_12 rwl_1_12 write_bl_0_12 wwl_0_12 vdd gnd cell_2r1w
Xbit_r13_c12 read_bl_0_12 rwl_0_13 read_bl_1_12 rwl_1_13 write_bl_0_12 wwl_0_13 vdd gnd cell_2r1w
Xbit_r14_c12 read_bl_0_12 rwl_0_14 read_bl_1_12 rwl_1_14 write_bl_0_12 wwl_0_14 vdd gnd cell_2r1w
Xbit_r15_c12 read_bl_0_12 rwl_0_15 read_bl_1_12 rwl_1_15 write_bl_0_12 wwl_0_15 vdd gnd cell_2r1w
Xbit_r0_c13 read_bl_0_13 rwl_0_0 read_bl_1_13 rwl_1_0 write_bl_0_13 wwl_0_0 vdd gnd cell_2r1w
Xbit_r1_c13 read_bl_0_13 rwl_0_1 read_bl_1_13 rwl_1_1 write_bl_0_13 wwl_0_1 vdd gnd cell_2r1w
Xbit_r2_c13 read_bl_0_13 rwl_0_2 read_bl_1_13 rwl_1_2 write_bl_0_13 wwl_0_2 vdd gnd cell_2r1w
Xbit_r3_c13 read_bl_0_13 rwl_0_3 read_bl_1_13 rwl_1_3 write_bl_0_13 wwl_0_3 vdd gnd cell_2r1w
Xbit_r4_c13 read_bl_0_13 rwl_0_4 read_bl_1_13 rwl_1_4 write_bl_0_13 wwl_0_4 vdd gnd cell_2r1w
Xbit_r5_c13 read_bl_0_13 rwl_0_5 read_bl_1_13 rwl_1_5 write_bl_0_13 wwl_0_5 vdd gnd cell_2r1w
Xbit_r6_c13 read_bl_0_13 rwl_0_6 read_bl_1_13 rwl_1_6 write_bl_0_13 wwl_0_6 vdd gnd cell_2r1w
Xbit_r7_c13 read_bl_0_13 rwl_0_7 read_bl_1_13 rwl_1_7 write_bl_0_13 wwl_0_7 vdd gnd cell_2r1w
Xbit_r8_c13 read_bl_0_13 rwl_0_8 read_bl_1_13 rwl_1_8 write_bl_0_13 wwl_0_8 vdd gnd cell_2r1w
Xbit_r9_c13 read_bl_0_13 rwl_0_9 read_bl_1_13 rwl_1_9 write_bl_0_13 wwl_0_9 vdd gnd cell_2r1w
Xbit_r10_c13 read_bl_0_13 rwl_0_10 read_bl_1_13 rwl_1_10 write_bl_0_13 wwl_0_10 vdd gnd cell_2r1w
Xbit_r11_c13 read_bl_0_13 rwl_0_11 read_bl_1_13 rwl_1_11 write_bl_0_13 wwl_0_11 vdd gnd cell_2r1w
Xbit_r12_c13 read_bl_0_13 rwl_0_12 read_bl_1_13 rwl_1_12 write_bl_0_13 wwl_0_12 vdd gnd cell_2r1w
Xbit_r13_c13 read_bl_0_13 rwl_0_13 read_bl_1_13 rwl_1_13 write_bl_0_13 wwl_0_13 vdd gnd cell_2r1w
Xbit_r14_c13 read_bl_0_13 rwl_0_14 read_bl_1_13 rwl_1_14 write_bl_0_13 wwl_0_14 vdd gnd cell_2r1w
Xbit_r15_c13 read_bl_0_13 rwl_0_15 read_bl_1_13 rwl_1_15 write_bl_0_13 wwl_0_15 vdd gnd cell_2r1w
Xbit_r0_c14 read_bl_0_14 rwl_0_0 read_bl_1_14 rwl_1_0 write_bl_0_14 wwl_0_0 vdd gnd cell_2r1w
Xbit_r1_c14 read_bl_0_14 rwl_0_1 read_bl_1_14 rwl_1_1 write_bl_0_14 wwl_0_1 vdd gnd cell_2r1w
Xbit_r2_c14 read_bl_0_14 rwl_0_2 read_bl_1_14 rwl_1_2 write_bl_0_14 wwl_0_2 vdd gnd cell_2r1w
Xbit_r3_c14 read_bl_0_14 rwl_0_3 read_bl_1_14 rwl_1_3 write_bl_0_14 wwl_0_3 vdd gnd cell_2r1w
Xbit_r4_c14 read_bl_0_14 rwl_0_4 read_bl_1_14 rwl_1_4 write_bl_0_14 wwl_0_4 vdd gnd cell_2r1w
Xbit_r5_c14 read_bl_0_14 rwl_0_5 read_bl_1_14 rwl_1_5 write_bl_0_14 wwl_0_5 vdd gnd cell_2r1w
Xbit_r6_c14 read_bl_0_14 rwl_0_6 read_bl_1_14 rwl_1_6 write_bl_0_14 wwl_0_6 vdd gnd cell_2r1w
Xbit_r7_c14 read_bl_0_14 rwl_0_7 read_bl_1_14 rwl_1_7 write_bl_0_14 wwl_0_7 vdd gnd cell_2r1w
Xbit_r8_c14 read_bl_0_14 rwl_0_8 read_bl_1_14 rwl_1_8 write_bl_0_14 wwl_0_8 vdd gnd cell_2r1w
Xbit_r9_c14 read_bl_0_14 rwl_0_9 read_bl_1_14 rwl_1_9 write_bl_0_14 wwl_0_9 vdd gnd cell_2r1w
Xbit_r10_c14 read_bl_0_14 rwl_0_10 read_bl_1_14 rwl_1_10 write_bl_0_14 wwl_0_10 vdd gnd cell_2r1w
Xbit_r11_c14 read_bl_0_14 rwl_0_11 read_bl_1_14 rwl_1_11 write_bl_0_14 wwl_0_11 vdd gnd cell_2r1w
Xbit_r12_c14 read_bl_0_14 rwl_0_12 read_bl_1_14 rwl_1_12 write_bl_0_14 wwl_0_12 vdd gnd cell_2r1w